/*--------------------------------*- C++ -*----------------------------------*\
| =========                 |                                                 |
| \      /  F ield         | foam-extend: Open Source CFD                    |
|  \    /   O peration     | Version:     4.0                                |
|   \  /    A nd           | Web:         http://www.foam-extend.org         |
|    \/     M anipulation  |                                                 |
\*---------------------------------------------------------------------------*/
FoamFile
{
    version     2.0;
    format      ascii;
    class       dictionary;
    object      blockMeshDict;
}
// * * * * * * * * * * * * * * * * * * * * * * * * * * * * * * * * * * * * * //

convertToMeters 0.000001;
vertices
(
    (0 0 0)      //0
    (14500 0 0)      //1
    (15500 0 0)      //2
    (30000 0 0)      //3
    (0 10000 0)      //4
    (14500 10000 0)      //5
    (15500 10000 0)      //6
    (30000 10000 0)      //7
    (0 20000 0)      //8
    (14500 20000 0)      //9
    (15500 20000 0)      //10
    (30000 20000 0)      //11
    (0 30000 0)      //12
    (14500 30000 0)      //13
    (15500 30000 0)      //14
    (30000 30000 0)      //15
    (14760.2041 14933.6735 2500)      //16
    (14760.2041 15066.3265 2500)      //17
    (14770.4082 14903.0612 2500)      //18
    (14770.4082 14933.6735 2500)      //19
    (14770.4082 15066.3265 2500)      //20
    (14770.4082 15096.9388 2500)      //21
    (14780.6122 14882.6531 2500)      //22
    (14780.6122 14903.0612 2500)      //23
    (14780.6122 15096.9388 2500)      //24
    (14780.6122 15117.3469 2500)      //25
    (14790.8163 14872.449 2500)      //26
    (14790.8163 14882.6531 2500)      //27
    (14790.8163 15117.3469 2500)      //28
    (14790.8163 15127.551 2500)      //29
    (14801.0204 14852.0408 2500)      //30
    (14801.0204 14872.449 2500)      //31
    (14801.0204 15127.551 2500)      //32
    (14801.0204 15147.9592 2500)      //33
    (14811.2245 14841.8367 2500)      //34
    (14811.2245 14852.0408 2500)      //35
    (14811.2245 15147.9592 2500)      //36
    (14811.2245 15158.1633 2500)      //37
    (14821.4286 14831.6327 2500)      //38
    (14821.4286 14841.8367 2500)      //39
    (14821.4286 15158.1633 2500)      //40
    (14821.4286 15168.3673 2500)      //41
    (14831.6327 14821.4286 2500)      //42
    (14831.6327 14831.6327 2500)      //43
    (14831.6327 15168.3673 2500)      //44
    (14831.6327 15178.5714 2500)      //45
    (14841.8367 14811.2245 2500)      //46
    (14841.8367 14821.4286 2500)      //47
    (14841.8367 15178.5714 2500)      //48
    (14841.8367 15188.7755 2500)      //49
    (14852.0408 14801.0204 2500)      //50
    (14852.0408 14811.2245 2500)      //51
    (14852.0408 15188.7755 2500)      //52
    (14852.0408 15198.9796 2500)      //53
    (14862.2449 14801.0204 2500)      //54
    (14862.2449 15198.9796 2500)      //55
    (14872.449 14790.8163 2500)      //56
    (14872.449 14801.0204 2500)      //57
    (14872.449 15198.9796 2500)      //58
    (14872.449 15209.1837 2500)      //59
    (14882.6531 14780.6122 2500)      //60
    (14882.6531 14790.8163 2500)      //61
    (14882.6531 15209.1837 2500)      //62
    (14882.6531 15219.3878 2500)      //63
    (14892.8571 14780.6122 2500)      //64
    (14892.8571 15219.3878 2500)      //65
    (14903.0612 14770.4082 2500)      //66
    (14903.0612 14780.6122 2500)      //67
    (14903.0612 15219.3878 2500)      //68
    (14903.0612 15229.5918 2500)      //69
    (14913.2653 14770.4082 2500)      //70
    (14913.2653 15229.5918 2500)      //71
    (14923.4694 14770.4082 2500)      //72
    (14923.4694 15229.5918 2500)      //73
    (14933.6735 14760.2041 2500)      //74
    (14933.6735 14770.4082 2500)      //75
    (14933.6735 15229.5918 2500)      //76
    (14933.6735 15239.7959 2500)      //77
    (14943.8776 14760.2041 2500)      //78
    (14943.8776 15239.7959 2500)      //79
    (14954.0816 14760.2041 2500)      //80
    (14954.0816 15239.7959 2500)      //81
    (14964.2857 14760.2041 2500)      //82
    (14964.2857 15239.7959 2500)      //83
    (14974.4898 14760.2041 2500)      //84
    (14974.4898 15239.7959 2500)      //85
    (14984.6939 14760.2041 2500)      //86
    (14984.6939 15239.7959 2500)      //87
    (14994.898 14760.2041 2500)      //88
    (14994.898 15239.7959 2500)      //89
    (15005.102 14760.2041 2500)      //90
    (15005.102 15239.7959 2500)      //91
    (15015.3061 14760.2041 2500)      //92
    (15015.3061 15239.7959 2500)      //93
    (15025.5102 14760.2041 2500)      //94
    (15025.5102 15239.7959 2500)      //95
    (15035.7143 14760.2041 2500)      //96
    (15035.7143 15239.7959 2500)      //97
    (15045.9184 14760.2041 2500)      //98
    (15045.9184 15239.7959 2500)      //99
    (15056.1224 14760.2041 2500)      //100
    (15056.1224 15239.7959 2500)      //101
    (15066.3265 14760.2041 2500)      //102
    (15066.3265 14770.4082 2500)      //103
    (15066.3265 15229.5918 2500)      //104
    (15066.3265 15239.7959 2500)      //105
    (15076.5306 14770.4082 2500)      //106
    (15076.5306 15229.5918 2500)      //107
    (15086.7347 14770.4082 2500)      //108
    (15086.7347 15229.5918 2500)      //109
    (15096.9388 14770.4082 2500)      //110
    (15096.9388 14780.6122 2500)      //111
    (15096.9388 15219.3878 2500)      //112
    (15096.9388 15229.5918 2500)      //113
    (15107.1429 14780.6122 2500)      //114
    (15107.1429 15219.3878 2500)      //115
    (15117.3469 14780.6122 2500)      //116
    (15117.3469 14790.8163 2500)      //117
    (15117.3469 15209.1837 2500)      //118
    (15117.3469 15219.3878 2500)      //119
    (15127.551 14790.8163 2500)      //120
    (15127.551 14801.0204 2500)      //121
    (15127.551 15198.9796 2500)      //122
    (15127.551 15209.1837 2500)      //123
    (15137.7551 14801.0204 2500)      //124
    (15137.7551 15198.9796 2500)      //125
    (15147.9592 14801.0204 2500)      //126
    (15147.9592 14811.2245 2500)      //127
    (15147.9592 15188.7755 2500)      //128
    (15147.9592 15198.9796 2500)      //129
    (15158.1633 14811.2245 2500)      //130
    (15158.1633 14821.4286 2500)      //131
    (15158.1633 15178.5714 2500)      //132
    (15158.1633 15188.7755 2500)      //133
    (15168.3673 14821.4286 2500)      //134
    (15168.3673 14831.6327 2500)      //135
    (15168.3673 15168.3673 2500)      //136
    (15168.3673 15178.5714 2500)      //137
    (15178.5714 14831.6327 2500)      //138
    (15178.5714 14841.8367 2500)      //139
    (15178.5714 15158.1633 2500)      //140
    (15178.5714 15168.3673 2500)      //141
    (15188.7755 14841.8367 2500)      //142
    (15188.7755 14852.0408 2500)      //143
    (15188.7755 15147.9592 2500)      //144
    (15188.7755 15158.1633 2500)      //145
    (15198.9796 14852.0408 2500)      //146
    (15198.9796 14872.449 2500)      //147
    (15198.9796 15127.551 2500)      //148
    (15198.9796 15147.9592 2500)      //149
    (15209.1837 14872.449 2500)      //150
    (15209.1837 14882.6531 2500)      //151
    (15209.1837 15117.3469 2500)      //152
    (15209.1837 15127.551 2500)      //153
    (15219.3878 14882.6531 2500)      //154
    (15219.3878 14903.0612 2500)      //155
    (15219.3878 15096.9388 2500)      //156
    (15219.3878 15117.3469 2500)      //157
    (15229.5918 14903.0612 2500)      //158
    (15229.5918 14933.6735 2500)      //159
    (15229.5918 15066.3265 2500)      //160
    (15229.5918 15096.9388 2500)      //161
    (15239.7959 14933.6735 2500)      //162
    (15239.7959 15066.3265 2500)      //163
    (0 0 2500)      //164
    (14500 0 2500)      //165
    (15500 0 2500)      //166
    (30000 0 2500)      //167
    (0 10000 2500)      //168
    (14500 10000 2500)      //169
    (14760.2041 10000 2500)      //170
    (15239.7959 10000 2500)      //171
    (15500 10000 2500)      //172
    (30000 10000 2500)      //173
    (14500 14760.2041 2500)      //174
    (15500 14760.2041 2500)      //175
    (14500 15239.7959 2500)      //176
    (15500 15239.7959 2500)      //177
    (0 20000 2500)      //178
    (14500 20000 2500)      //179
    (14760.2041 20000 2500)      //180
    (15239.7959 20000 2500)      //181
    (15500 20000 2500)      //182
    (30000 20000 2500)      //183
    (0 30000 2500)      //184
    (14500 30000 2500)      //185
    (15500 30000 2500)      //186
    (30000 30000 2500)      //187
    (14760.2041 14760.2041 2500)      //188
    (14760.2041 14770.4082 2500)      //189
    (14760.2041 14780.6122 2500)      //190
    (14760.2041 14790.8163 2500)      //191
    (14760.2041 14801.0204 2500)      //192
    (14760.2041 14811.2245 2500)      //193
    (14760.2041 14821.4286 2500)      //194
    (14760.2041 14831.6327 2500)      //195
    (14760.2041 14841.8367 2500)      //196
    (14760.2041 14852.0408 2500)      //197
    (14760.2041 14872.449 2500)      //198
    (14760.2041 14882.6531 2500)      //199
    (14760.2041 14903.0612 2500)      //200
    (14760.2041 15096.9388 2500)      //201
    (14760.2041 15117.3469 2500)      //202
    (14760.2041 15127.551 2500)      //203
    (14760.2041 15147.9592 2500)      //204
    (14760.2041 15158.1633 2500)      //205
    (14760.2041 15168.3673 2500)      //206
    (14760.2041 15178.5714 2500)      //207
    (14760.2041 15188.7755 2500)      //208
    (14760.2041 15198.9796 2500)      //209
    (14760.2041 15209.1837 2500)      //210
    (14760.2041 15219.3878 2500)      //211
    (14760.2041 15229.5918 2500)      //212
    (14760.2041 15239.7959 2500)      //213
    (14770.4082 14760.2041 2500)      //214
    (14770.4082 14770.4082 2500)      //215
    (14770.4082 14780.6122 2500)      //216
    (14770.4082 14790.8163 2500)      //217
    (14770.4082 14801.0204 2500)      //218
    (14770.4082 14811.2245 2500)      //219
    (14770.4082 14821.4286 2500)      //220
    (14770.4082 14831.6327 2500)      //221
    (14770.4082 14841.8367 2500)      //222
    (14770.4082 14852.0408 2500)      //223
    (14770.4082 14872.449 2500)      //224
    (14770.4082 14882.6531 2500)      //225
    (14770.4082 15117.3469 2500)      //226
    (14770.4082 15127.551 2500)      //227
    (14770.4082 15147.9592 2500)      //228
    (14770.4082 15158.1633 2500)      //229
    (14770.4082 15168.3673 2500)      //230
    (14770.4082 15178.5714 2500)      //231
    (14770.4082 15188.7755 2500)      //232
    (14770.4082 15198.9796 2500)      //233
    (14770.4082 15209.1837 2500)      //234
    (14770.4082 15219.3878 2500)      //235
    (14770.4082 15229.5918 2500)      //236
    (14770.4082 15239.7959 2500)      //237
    (14780.6122 14760.2041 2500)      //238
    (14780.6122 14770.4082 2500)      //239
    (14780.6122 14780.6122 2500)      //240
    (14780.6122 14790.8163 2500)      //241
    (14780.6122 14801.0204 2500)      //242
    (14780.6122 14811.2245 2500)      //243
    (14780.6122 14821.4286 2500)      //244
    (14780.6122 14831.6327 2500)      //245
    (14780.6122 14841.8367 2500)      //246
    (14780.6122 14852.0408 2500)      //247
    (14780.6122 14872.449 2500)      //248
    (14780.6122 15127.551 2500)      //249
    (14780.6122 15147.9592 2500)      //250
    (14780.6122 15158.1633 2500)      //251
    (14780.6122 15168.3673 2500)      //252
    (14780.6122 15178.5714 2500)      //253
    (14780.6122 15188.7755 2500)      //254
    (14780.6122 15198.9796 2500)      //255
    (14780.6122 15209.1837 2500)      //256
    (14780.6122 15219.3878 2500)      //257
    (14780.6122 15229.5918 2500)      //258
    (14780.6122 15239.7959 2500)      //259
    (14790.8163 14760.2041 2500)      //260
    (14790.8163 14770.4082 2500)      //261
    (14790.8163 14780.6122 2500)      //262
    (14790.8163 14790.8163 2500)      //263
    (14790.8163 14801.0204 2500)      //264
    (14790.8163 14811.2245 2500)      //265
    (14790.8163 14821.4286 2500)      //266
    (14790.8163 14831.6327 2500)      //267
    (14790.8163 14841.8367 2500)      //268
    (14790.8163 14852.0408 2500)      //269
    (14790.8163 15147.9592 2500)      //270
    (14790.8163 15158.1633 2500)      //271
    (14790.8163 15168.3673 2500)      //272
    (14790.8163 15178.5714 2500)      //273
    (14790.8163 15188.7755 2500)      //274
    (14790.8163 15198.9796 2500)      //275
    (14790.8163 15209.1837 2500)      //276
    (14790.8163 15219.3878 2500)      //277
    (14790.8163 15229.5918 2500)      //278
    (14790.8163 15239.7959 2500)      //279
    (14801.0204 14760.2041 2500)      //280
    (14801.0204 14770.4082 2500)      //281
    (14801.0204 14780.6122 2500)      //282
    (14801.0204 14790.8163 2500)      //283
    (14801.0204 14801.0204 2500)      //284
    (14801.0204 14811.2245 2500)      //285
    (14801.0204 14821.4286 2500)      //286
    (14801.0204 14831.6327 2500)      //287
    (14801.0204 14841.8367 2500)      //288
    (14801.0204 15158.1633 2500)      //289
    (14801.0204 15168.3673 2500)      //290
    (14801.0204 15178.5714 2500)      //291
    (14801.0204 15188.7755 2500)      //292
    (14801.0204 15198.9796 2500)      //293
    (14801.0204 15209.1837 2500)      //294
    (14801.0204 15219.3878 2500)      //295
    (14801.0204 15229.5918 2500)      //296
    (14801.0204 15239.7959 2500)      //297
    (14811.2245 14760.2041 2500)      //298
    (14811.2245 14770.4082 2500)      //299
    (14811.2245 14780.6122 2500)      //300
    (14811.2245 14790.8163 2500)      //301
    (14811.2245 14801.0204 2500)      //302
    (14811.2245 14811.2245 2500)      //303
    (14811.2245 14821.4286 2500)      //304
    (14811.2245 14831.6327 2500)      //305
    (14811.2245 15168.3673 2500)      //306
    (14811.2245 15178.5714 2500)      //307
    (14811.2245 15188.7755 2500)      //308
    (14811.2245 15198.9796 2500)      //309
    (14811.2245 15209.1837 2500)      //310
    (14811.2245 15219.3878 2500)      //311
    (14811.2245 15229.5918 2500)      //312
    (14811.2245 15239.7959 2500)      //313
    (14821.4286 14760.2041 2500)      //314
    (14821.4286 14770.4082 2500)      //315
    (14821.4286 14780.6122 2500)      //316
    (14821.4286 14790.8163 2500)      //317
    (14821.4286 14801.0204 2500)      //318
    (14821.4286 14811.2245 2500)      //319
    (14821.4286 14821.4286 2500)      //320
    (14821.4286 15178.5714 2500)      //321
    (14821.4286 15188.7755 2500)      //322
    (14821.4286 15198.9796 2500)      //323
    (14821.4286 15209.1837 2500)      //324
    (14821.4286 15219.3878 2500)      //325
    (14821.4286 15229.5918 2500)      //326
    (14821.4286 15239.7959 2500)      //327
    (14831.6327 14760.2041 2500)      //328
    (14831.6327 14770.4082 2500)      //329
    (14831.6327 14780.6122 2500)      //330
    (14831.6327 14790.8163 2500)      //331
    (14831.6327 14801.0204 2500)      //332
    (14831.6327 14811.2245 2500)      //333
    (14831.6327 15188.7755 2500)      //334
    (14831.6327 15198.9796 2500)      //335
    (14831.6327 15209.1837 2500)      //336
    (14831.6327 15219.3878 2500)      //337
    (14831.6327 15229.5918 2500)      //338
    (14831.6327 15239.7959 2500)      //339
    (14841.8367 14760.2041 2500)      //340
    (14841.8367 14770.4082 2500)      //341
    (14841.8367 14780.6122 2500)      //342
    (14841.8367 14790.8163 2500)      //343
    (14841.8367 14801.0204 2500)      //344
    (14841.8367 15198.9796 2500)      //345
    (14841.8367 15209.1837 2500)      //346
    (14841.8367 15219.3878 2500)      //347
    (14841.8367 15229.5918 2500)      //348
    (14841.8367 15239.7959 2500)      //349
    (14852.0408 14760.2041 2500)      //350
    (14852.0408 14770.4082 2500)      //351
    (14852.0408 14780.6122 2500)      //352
    (14852.0408 14790.8163 2500)      //353
    (14852.0408 15209.1837 2500)      //354
    (14852.0408 15219.3878 2500)      //355
    (14852.0408 15229.5918 2500)      //356
    (14852.0408 15239.7959 2500)      //357
    (14862.2449 14760.2041 2500)      //358
    (14862.2449 14770.4082 2500)      //359
    (14862.2449 14780.6122 2500)      //360
    (14862.2449 14790.8163 2500)      //361
    (14862.2449 15209.1837 2500)      //362
    (14862.2449 15219.3878 2500)      //363
    (14862.2449 15229.5918 2500)      //364
    (14862.2449 15239.7959 2500)      //365
    (14872.449 14760.2041 2500)      //366
    (14872.449 14770.4082 2500)      //367
    (14872.449 14780.6122 2500)      //368
    (14872.449 15219.3878 2500)      //369
    (14872.449 15229.5918 2500)      //370
    (14872.449 15239.7959 2500)      //371
    (14882.6531 14760.2041 2500)      //372
    (14882.6531 14770.4082 2500)      //373
    (14882.6531 15229.5918 2500)      //374
    (14882.6531 15239.7959 2500)      //375
    (14892.8571 14760.2041 2500)      //376
    (14892.8571 14770.4082 2500)      //377
    (14892.8571 15229.5918 2500)      //378
    (14892.8571 15239.7959 2500)      //379
    (14903.0612 14760.2041 2500)      //380
    (14903.0612 15239.7959 2500)      //381
    (14913.2653 14760.2041 2500)      //382
    (14913.2653 15239.7959 2500)      //383
    (14923.4694 14760.2041 2500)      //384
    (14923.4694 15239.7959 2500)      //385
    (15076.5306 14760.2041 2500)      //386
    (15076.5306 15239.7959 2500)      //387
    (15086.7347 14760.2041 2500)      //388
    (15086.7347 15239.7959 2500)      //389
    (15096.9388 14760.2041 2500)      //390
    (15096.9388 15239.7959 2500)      //391
    (15107.1429 14760.2041 2500)      //392
    (15107.1429 14770.4082 2500)      //393
    (15107.1429 15229.5918 2500)      //394
    (15107.1429 15239.7959 2500)      //395
    (15117.3469 14760.2041 2500)      //396
    (15117.3469 14770.4082 2500)      //397
    (15117.3469 15229.5918 2500)      //398
    (15117.3469 15239.7959 2500)      //399
    (15127.551 14760.2041 2500)      //400
    (15127.551 14770.4082 2500)      //401
    (15127.551 14780.6122 2500)      //402
    (15127.551 15219.3878 2500)      //403
    (15127.551 15229.5918 2500)      //404
    (15127.551 15239.7959 2500)      //405
    (15137.7551 14760.2041 2500)      //406
    (15137.7551 14770.4082 2500)      //407
    (15137.7551 14780.6122 2500)      //408
    (15137.7551 14790.8163 2500)      //409
    (15137.7551 15209.1837 2500)      //410
    (15137.7551 15219.3878 2500)      //411
    (15137.7551 15229.5918 2500)      //412
    (15137.7551 15239.7959 2500)      //413
    (15147.9592 14760.2041 2500)      //414
    (15147.9592 14770.4082 2500)      //415
    (15147.9592 14780.6122 2500)      //416
    (15147.9592 14790.8163 2500)      //417
    (15147.9592 15209.1837 2500)      //418
    (15147.9592 15219.3878 2500)      //419
    (15147.9592 15229.5918 2500)      //420
    (15147.9592 15239.7959 2500)      //421
    (15158.1633 14760.2041 2500)      //422
    (15158.1633 14770.4082 2500)      //423
    (15158.1633 14780.6122 2500)      //424
    (15158.1633 14790.8163 2500)      //425
    (15158.1633 14801.0204 2500)      //426
    (15158.1633 15198.9796 2500)      //427
    (15158.1633 15209.1837 2500)      //428
    (15158.1633 15219.3878 2500)      //429
    (15158.1633 15229.5918 2500)      //430
    (15158.1633 15239.7959 2500)      //431
    (15168.3673 14760.2041 2500)      //432
    (15168.3673 14770.4082 2500)      //433
    (15168.3673 14780.6122 2500)      //434
    (15168.3673 14790.8163 2500)      //435
    (15168.3673 14801.0204 2500)      //436
    (15168.3673 14811.2245 2500)      //437
    (15168.3673 15188.7755 2500)      //438
    (15168.3673 15198.9796 2500)      //439
    (15168.3673 15209.1837 2500)      //440
    (15168.3673 15219.3878 2500)      //441
    (15168.3673 15229.5918 2500)      //442
    (15168.3673 15239.7959 2500)      //443
    (15178.5714 14760.2041 2500)      //444
    (15178.5714 14770.4082 2500)      //445
    (15178.5714 14780.6122 2500)      //446
    (15178.5714 14790.8163 2500)      //447
    (15178.5714 14801.0204 2500)      //448
    (15178.5714 14811.2245 2500)      //449
    (15178.5714 14821.4286 2500)      //450
    (15178.5714 15178.5714 2500)      //451
    (15178.5714 15188.7755 2500)      //452
    (15178.5714 15198.9796 2500)      //453
    (15178.5714 15209.1837 2500)      //454
    (15178.5714 15219.3878 2500)      //455
    (15178.5714 15229.5918 2500)      //456
    (15178.5714 15239.7959 2500)      //457
    (15188.7755 14760.2041 2500)      //458
    (15188.7755 14770.4082 2500)      //459
    (15188.7755 14780.6122 2500)      //460
    (15188.7755 14790.8163 2500)      //461
    (15188.7755 14801.0204 2500)      //462
    (15188.7755 14811.2245 2500)      //463
    (15188.7755 14821.4286 2500)      //464
    (15188.7755 14831.6327 2500)      //465
    (15188.7755 15168.3673 2500)      //466
    (15188.7755 15178.5714 2500)      //467
    (15188.7755 15188.7755 2500)      //468
    (15188.7755 15198.9796 2500)      //469
    (15188.7755 15209.1837 2500)      //470
    (15188.7755 15219.3878 2500)      //471
    (15188.7755 15229.5918 2500)      //472
    (15188.7755 15239.7959 2500)      //473
    (15198.9796 14760.2041 2500)      //474
    (15198.9796 14770.4082 2500)      //475
    (15198.9796 14780.6122 2500)      //476
    (15198.9796 14790.8163 2500)      //477
    (15198.9796 14801.0204 2500)      //478
    (15198.9796 14811.2245 2500)      //479
    (15198.9796 14821.4286 2500)      //480
    (15198.9796 14831.6327 2500)      //481
    (15198.9796 14841.8367 2500)      //482
    (15198.9796 15158.1633 2500)      //483
    (15198.9796 15168.3673 2500)      //484
    (15198.9796 15178.5714 2500)      //485
    (15198.9796 15188.7755 2500)      //486
    (15198.9796 15198.9796 2500)      //487
    (15198.9796 15209.1837 2500)      //488
    (15198.9796 15219.3878 2500)      //489
    (15198.9796 15229.5918 2500)      //490
    (15198.9796 15239.7959 2500)      //491
    (15209.1837 14760.2041 2500)      //492
    (15209.1837 14770.4082 2500)      //493
    (15209.1837 14780.6122 2500)      //494
    (15209.1837 14790.8163 2500)      //495
    (15209.1837 14801.0204 2500)      //496
    (15209.1837 14811.2245 2500)      //497
    (15209.1837 14821.4286 2500)      //498
    (15209.1837 14831.6327 2500)      //499
    (15209.1837 14841.8367 2500)      //500
    (15209.1837 14852.0408 2500)      //501
    (15209.1837 15147.9592 2500)      //502
    (15209.1837 15158.1633 2500)      //503
    (15209.1837 15168.3673 2500)      //504
    (15209.1837 15178.5714 2500)      //505
    (15209.1837 15188.7755 2500)      //506
    (15209.1837 15198.9796 2500)      //507
    (15209.1837 15209.1837 2500)      //508
    (15209.1837 15219.3878 2500)      //509
    (15209.1837 15229.5918 2500)      //510
    (15209.1837 15239.7959 2500)      //511
    (15219.3878 14760.2041 2500)      //512
    (15219.3878 14770.4082 2500)      //513
    (15219.3878 14780.6122 2500)      //514
    (15219.3878 14790.8163 2500)      //515
    (15219.3878 14801.0204 2500)      //516
    (15219.3878 14811.2245 2500)      //517
    (15219.3878 14821.4286 2500)      //518
    (15219.3878 14831.6327 2500)      //519
    (15219.3878 14841.8367 2500)      //520
    (15219.3878 14852.0408 2500)      //521
    (15219.3878 14872.449 2500)      //522
    (15219.3878 15127.551 2500)      //523
    (15219.3878 15147.9592 2500)      //524
    (15219.3878 15158.1633 2500)      //525
    (15219.3878 15168.3673 2500)      //526
    (15219.3878 15178.5714 2500)      //527
    (15219.3878 15188.7755 2500)      //528
    (15219.3878 15198.9796 2500)      //529
    (15219.3878 15209.1837 2500)      //530
    (15219.3878 15219.3878 2500)      //531
    (15219.3878 15229.5918 2500)      //532
    (15219.3878 15239.7959 2500)      //533
    (15229.5918 14760.2041 2500)      //534
    (15229.5918 14770.4082 2500)      //535
    (15229.5918 14780.6122 2500)      //536
    (15229.5918 14790.8163 2500)      //537
    (15229.5918 14801.0204 2500)      //538
    (15229.5918 14811.2245 2500)      //539
    (15229.5918 14821.4286 2500)      //540
    (15229.5918 14831.6327 2500)      //541
    (15229.5918 14841.8367 2500)      //542
    (15229.5918 14852.0408 2500)      //543
    (15229.5918 14872.449 2500)      //544
    (15229.5918 14882.6531 2500)      //545
    (15229.5918 15117.3469 2500)      //546
    (15229.5918 15127.551 2500)      //547
    (15229.5918 15147.9592 2500)      //548
    (15229.5918 15158.1633 2500)      //549
    (15229.5918 15168.3673 2500)      //550
    (15229.5918 15178.5714 2500)      //551
    (15229.5918 15188.7755 2500)      //552
    (15229.5918 15198.9796 2500)      //553
    (15229.5918 15209.1837 2500)      //554
    (15229.5918 15219.3878 2500)      //555
    (15229.5918 15229.5918 2500)      //556
    (15229.5918 15239.7959 2500)      //557
    (15239.7959 14760.2041 2500)      //558
    (15239.7959 14770.4082 2500)      //559
    (15239.7959 14780.6122 2500)      //560
    (15239.7959 14790.8163 2500)      //561
    (15239.7959 14801.0204 2500)      //562
    (15239.7959 14811.2245 2500)      //563
    (15239.7959 14821.4286 2500)      //564
    (15239.7959 14831.6327 2500)      //565
    (15239.7959 14841.8367 2500)      //566
    (15239.7959 14852.0408 2500)      //567
    (15239.7959 14872.449 2500)      //568
    (15239.7959 14882.6531 2500)      //569
    (15239.7959 14903.0612 2500)      //570
    (15239.7959 15096.9388 2500)      //571
    (15239.7959 15117.3469 2500)      //572
    (15239.7959 15127.551 2500)      //573
    (15239.7959 15147.9592 2500)      //574
    (15239.7959 15158.1633 2500)      //575
    (15239.7959 15168.3673 2500)      //576
    (15239.7959 15178.5714 2500)      //577
    (15239.7959 15188.7755 2500)      //578
    (15239.7959 15198.9796 2500)      //579
    (15239.7959 15209.1837 2500)      //580
    (15239.7959 15219.3878 2500)      //581
    (15239.7959 15229.5918 2500)      //582
    (15239.7959 15239.7959 2500)      //583
    (0 0 17500)      //584
    (14500 0 17500)      //585
    (15500 0 17500)      //586
    (30000 0 17500)      //587
    (0 10000 17500)      //588
    (14500 10000 17500)      //589
    (14760.2041 10000 17500)      //590
    (15239.7959 10000 17500)      //591
    (15500 10000 17500)      //592
    (30000 10000 17500)      //593
    (14500 14760.2041 17500)      //594
    (15500 14760.2041 17500)      //595
    (14500 15239.7959 17500)      //596
    (15500 15239.7959 17500)      //597
    (0 20000 17500)      //598
    (14500 20000 17500)      //599
    (14760.2041 20000 17500)      //600
    (15239.7959 20000 17500)      //601
    (15500 20000 17500)      //602
    (30000 20000 17500)      //603
    (0 30000 17500)      //604
    (14500 30000 17500)      //605
    (15500 30000 17500)      //606
    (30000 30000 17500)      //607
    (14760.2041 14760.2041 17500)      //608
    (14760.2041 14770.4082 17500)      //609
    (14760.2041 14780.6122 17500)      //610
    (14760.2041 14790.8163 17500)      //611
    (14760.2041 14801.0204 17500)      //612
    (14760.2041 14811.2245 17500)      //613
    (14760.2041 14821.4286 17500)      //614
    (14760.2041 14831.6327 17500)      //615
    (14760.2041 14841.8367 17500)      //616
    (14760.2041 14852.0408 17500)      //617
    (14760.2041 14872.449 17500)      //618
    (14760.2041 14882.6531 17500)      //619
    (14760.2041 14903.0612 17500)      //620
    (14760.2041 15096.9388 17500)      //621
    (14760.2041 15117.3469 17500)      //622
    (14760.2041 15127.551 17500)      //623
    (14760.2041 15147.9592 17500)      //624
    (14760.2041 15158.1633 17500)      //625
    (14760.2041 15168.3673 17500)      //626
    (14760.2041 15178.5714 17500)      //627
    (14760.2041 15188.7755 17500)      //628
    (14760.2041 15198.9796 17500)      //629
    (14760.2041 15209.1837 17500)      //630
    (14760.2041 15219.3878 17500)      //631
    (14760.2041 15229.5918 17500)      //632
    (14760.2041 15239.7959 17500)      //633
    (14770.4082 14760.2041 17500)      //634
    (14770.4082 14770.4082 17500)      //635
    (14770.4082 14780.6122 17500)      //636
    (14770.4082 14790.8163 17500)      //637
    (14770.4082 14801.0204 17500)      //638
    (14770.4082 14811.2245 17500)      //639
    (14770.4082 14821.4286 17500)      //640
    (14770.4082 14831.6327 17500)      //641
    (14770.4082 14841.8367 17500)      //642
    (14770.4082 14852.0408 17500)      //643
    (14770.4082 14872.449 17500)      //644
    (14770.4082 14882.6531 17500)      //645
    (14770.4082 15117.3469 17500)      //646
    (14770.4082 15127.551 17500)      //647
    (14770.4082 15147.9592 17500)      //648
    (14770.4082 15158.1633 17500)      //649
    (14770.4082 15168.3673 17500)      //650
    (14770.4082 15178.5714 17500)      //651
    (14770.4082 15188.7755 17500)      //652
    (14770.4082 15198.9796 17500)      //653
    (14770.4082 15209.1837 17500)      //654
    (14770.4082 15219.3878 17500)      //655
    (14770.4082 15229.5918 17500)      //656
    (14770.4082 15239.7959 17500)      //657
    (14780.6122 14760.2041 17500)      //658
    (14780.6122 14770.4082 17500)      //659
    (14780.6122 14780.6122 17500)      //660
    (14780.6122 14790.8163 17500)      //661
    (14780.6122 14801.0204 17500)      //662
    (14780.6122 14811.2245 17500)      //663
    (14780.6122 14821.4286 17500)      //664
    (14780.6122 14831.6327 17500)      //665
    (14780.6122 14841.8367 17500)      //666
    (14780.6122 14852.0408 17500)      //667
    (14780.6122 14872.449 17500)      //668
    (14780.6122 15127.551 17500)      //669
    (14780.6122 15147.9592 17500)      //670
    (14780.6122 15158.1633 17500)      //671
    (14780.6122 15168.3673 17500)      //672
    (14780.6122 15178.5714 17500)      //673
    (14780.6122 15188.7755 17500)      //674
    (14780.6122 15198.9796 17500)      //675
    (14780.6122 15209.1837 17500)      //676
    (14780.6122 15219.3878 17500)      //677
    (14780.6122 15229.5918 17500)      //678
    (14780.6122 15239.7959 17500)      //679
    (14790.8163 14760.2041 17500)      //680