/*--------------------------------*- C++ -*----------------------------------*\
| =========                 |                                                 |
| \      /  F ield         | foam-extend: Open Source CFD                    |
|  \    /   O peration     | Version:     4.0                                |
|   \  /    A nd           | Web:         http://www.foam-extend.org         |
|    \/     M anipulation  |                                                 |
\*---------------------------------------------------------------------------*/
FoamFile
{
    version     2.0;
    format      ascii;
    class       dictionary;
    object      blockMeshDict;
}
// * * * * * * * * * * * * * * * * * * * * * * * * * * * * * * * * * * * * * //

convertToMeters 0.001;
vertices
(
	(17 69 0)      //0
	(33 69 0)      //1
	(24.6464 76.6464 0)      //2
	(25.3536 76.6464 0)      //3
	(24.8232 76.8232 0)      //4
	(25.1768 76.8232 0)      //5
	(24.8232 77.1768 0)      //6
	(25.1768 77.1768 0)      //7
	(24.6464 77.3536 0)      //8
	(25.3536 77.3536 0)      //9
	(17 85 0)      //10
	(33 85 0)      //11
	(24.6464 92.6464 0)      //12
	(25.3536 92.6464 0)      //13
	(24.8232 92.8232 0)      //14
	(25.1768 92.8232 0)      //15
	(24.8232 93.1768 0)      //16
	(25.1768 93.1768 0)      //17
	(24.6464 93.3536 0)      //18
	(25.3536 93.3536 0)      //19
	(17 101 0)      //20
	(33 101 0)      //21
	(24.6464 108.6464 0)      //22
	(25.3536 108.6464 0)      //23
	(24.8232 108.8232 0)      //24
	(25.1768 108.8232 0)      //25
	(24.8232 109.1768 0)      //26
	(25.1768 109.1768 0)      //27
	(24.6464 109.3536 0)      //28
	(25.3536 109.3536 0)      //29
	(17 117 0)      //30
	(33 117 0)      //31
	(24.6464 124.6464 0)      //32
	(25.3536 124.6464 0)      //33
	(24.8232 124.8232 0)      //34
	(25.1768 124.8232 0)      //35
	(24.8232 125.1768 0)      //36
	(25.1768 125.1768 0)      //37
	(24.6464 125.3536 0)      //38
	(25.3536 125.3536 0)      //39
	(17 133 0)      //40
	(33 133 0)      //41
	(24.6464 140.6464 0)      //42
	(25.3536 140.6464 0)      //43
	(24.8232 140.8232 0)      //44
	(25.1768 140.8232 0)      //45
	(24.8232 141.1768 0)      //46
	(25.1768 141.1768 0)      //47
	(24.6464 141.3536 0)      //48
	(25.3536 141.3536 0)      //49
	(17 149 0)      //50
	(33 149 0)      //51
	(24.6464 156.6464 0)      //52
	(25.3536 156.6464 0)      //53
	(24.8232 156.8232 0)      //54
	(25.1768 156.8232 0)      //55
	(24.8232 157.1768 0)      //56
	(25.1768 157.1768 0)      //57
	(24.6464 157.3536 0)      //58
	(25.3536 157.3536 0)      //59
	(17 165 0)      //60
	(33 165 0)      //61
	(24.6464 172.6464 0)      //62
	(25.3536 172.6464 0)      //63
	(24.8232 172.8232 0)      //64
	(25.1768 172.8232 0)      //65
	(24.8232 173.1768 0)      //66
	(25.1768 173.1768 0)      //67
	(24.6464 173.3536 0)      //68
	(25.3536 173.3536 0)      //69
	(17 181 0)      //70
	(33 181 0)      //71
	(17 69 16)      //72
	(33 69 16)      //73
	(24.6464 76.6464 16)      //74
	(25.3536 76.6464 16)      //75
	(24.8232 76.8232 16)      //76
	(25.1768 76.8232 16)      //77
	(24.8232 77.1768 16)      //78
	(25.1768 77.1768 16)      //79
	(24.6464 77.3536 16)      //80
	(25.3536 77.3536 16)      //81
	(17 85 16)      //82
	(33 85 16)      //83
	(24.6464 92.6464 16)      //84
	(25.3536 92.6464 16)      //85
	(24.8232 92.8232 16)      //86
	(25.1768 92.8232 16)      //87
	(24.8232 93.1768 16)      //88
	(25.1768 93.1768 16)      //89
	(24.6464 93.3536 16)      //90
	(25.3536 93.3536 16)      //91
	(17 101 16)      //92
	(33 101 16)      //93
	(24.6464 108.6464 16)      //94
	(25.3536 108.6464 16)      //95
	(24.8232 108.8232 16)      //96
	(25.1768 108.8232 16)      //97
	(24.8232 109.1768 16)      //98
	(25.1768 109.1768 16)      //99
	(24.6464 109.3536 16)      //100
	(25.3536 109.3536 16)      //101
	(17 117 16)      //102
	(33 117 16)      //103
	(24.6464 124.6464 16)      //104
	(25.3536 124.6464 16)      //105
	(24.8232 124.8232 16)      //106
	(25.1768 124.8232 16)      //107
	(24.8232 125.1768 16)      //108
	(25.1768 125.1768 16)      //109
	(24.6464 125.3536 16)      //110
	(25.3536 125.3536 16)      //111
	(17 133 16)      //112
	(33 133 16)      //113
	(24.6464 140.6464 16)      //114
	(25.3536 140.6464 16)      //115
	(24.8232 140.8232 16)      //116
	(25.1768 140.8232 16)      //117
	(24.8232 141.1768 16)      //118
	(25.1768 141.1768 16)      //119
	(24.6464 141.3536 16)      //120
	(25.3536 141.3536 16)      //121
	(17 149 16)      //122
	(33 149 16)      //123
	(24.6464 156.6464 16)      //124
	(25.3536 156.6464 16)      //125
	(24.8232 156.8232 16)      //126
	(25.1768 156.8232 16)      //127
	(24.8232 157.1768 16)      //128
	(25.1768 157.1768 16)      //129
	(24.6464 157.3536 16)      //130
	(25.3536 157.3536 16)      //131
	(17 165 16)      //132
	(33 165 16)      //133
	(24.6464 172.6464 16)      //134
	(25.3536 172.6464 16)      //135
	(24.8232 172.8232 16)      //136
	(25.1768 172.8232 16)      //137
	(24.8232 173.1768 16)      //138
	(25.1768 173.1768 16)      //139
	(24.6464 173.3536 16)      //140
	(25.3536 173.3536 16)      //141
	(17 181 16)      //142
	(33 181 16)      //143
	(17 69 96)      //144
	(33 69 96)      //145
	(24.6464 76.6464 96)      //146
	(25.3536 76.6464 96)      //147
	(24.8232 76.8232 96)      //148
	(25.1768 76.8232 96)      //149
	(24.8232 77.1768 96)      //150
	(25.1768 77.1768 96)      //151
	(24.6464 77.3536 96)      //152
	(25.3536 77.3536 96)      //153
	(17 85 96)      //154
	(33 85 96)      //155
	(24.6464 92.6464 96)      //156
	(25.3536 92.6464 96)      //157
	(24.8232 92.8232 96)      //158
	(25.1768 92.8232 96)      //159
	(24.8232 93.1768 96)      //160
	(25.1768 93.1768 96)      //161
	(24.6464 93.3536 96)      //162
	(25.3536 93.3536 96)      //163
	(17 101 96)      //164
	(33 101 96)      //165
	(24.6464 108.6464 96)      //166
	(25.3536 108.6464 96)      //167
	(24.8232 108.8232 96)      //168
	(25.1768 108.8232 96)      //169
	(24.8232 109.1768 96)      //170
	(25.1768 109.1768 96)      //171
	(24.6464 109.3536 96)      //172
	(25.3536 109.3536 96)      //173
	(17 117 96)      //174
	(33 117 96)      //175
	(24.6464 124.6464 96)      //176
	(25.3536 124.6464 96)      //177
	(24.8232 124.8232 96)      //178
	(25.1768 124.8232 96)      //179
	(24.8232 125.1768 96)      //180
	(25.1768 125.1768 96)      //181
	(24.6464 125.3536 96)      //182
	(25.3536 125.3536 96)      //183
	(17 133 96)      //184
	(33 133 96)      //185
	(24.6464 140.6464 96)      //186
	(25.3536 140.6464 96)      //187
	(24.8232 140.8232 96)      //188
	(25.1768 140.8232 96)      //189
	(24.8232 141.1768 96)      //190
	(25.1768 141.1768 96)      //191
	(24.6464 141.3536 96)      //192
	(25.3536 141.3536 96)      //193
	(17 149 96)      //194
	(33 149 96)      //195
	(24.6464 156.6464 96)      //196
	(25.3536 156.6464 96)      //197
	(24.8232 156.8232 96)      //198
	(25.1768 156.8232 96)      //199
	(24.8232 157.1768 96)      //200
	(25.1768 157.1768 96)      //201
	(24.6464 157.3536 96)      //202
	(25.3536 157.3536 96)      //203
	(17 165 96)      //204
	(33 165 96)      //205
	(24.6464 172.6464 96)      //206
	(25.3536 172.6464 96)      //207
	(24.8232 172.8232 96)      //208
	(25.1768 172.8232 96)      //209
	(24.8232 173.1768 96)      //210
	(25.1768 173.1768 96)      //211
	(24.6464 173.3536 96)      //212
	(25.3536 173.3536 96)      //213
	(17 181 96)      //214
	(33 181 96)      //215

);

blocks
(
	hex (4 5 7 6 76 77 79 78) (4 4 24) simpleGrading (1 1 1)
	hex (2 4 6 8 74 76 78 80) (4 4 24) simpleGrading (1 1 1)
	hex (3 5 4 2 75 77 76 74) (4 4 24) simpleGrading (1 1 1)
	hex (9 7 5 3 81 79 77 75) (4 4 24) simpleGrading (1 1 1)
	hex (8 6 7 9 80 78 79 81) (4 4 24) simpleGrading (1 1 1)
	hex (0 2 8 10 72 74 80 82) (8 4 24) simpleGrading (0.2 1 1)
	hex (1 3 2 0 73 75 74 72) (8 4 24) simpleGrading (0.2 1 1)
	hex (11 9 3 1 83 81 75 73) (8 4 24) simpleGrading (0.2 1 1)
	hex (10 8 9 11 82 80 81 83) (8 4 24) simpleGrading (0.2 1 1)
	hex (76 77 79 78 148 149 151 150) (4 4 100) simpleGrading (1 1 1)
	hex (74 76 78 80 146 148 150 152) (4 4 100) simpleGrading (1 1 1)
	hex (75 77 76 74 147 149 148 146) (4 4 100) simpleGrading (1 1 1)
	hex (81 79 77 75 153 151 149 147) (4 4 100) simpleGrading (1 1 1)
	hex (80 78 79 81 152 150 151 153) (4 4 100) simpleGrading (1 1 1)
	hex (14 15 17 16 86 87 89 88) (4 4 24) simpleGrading (1 1 1)
	hex (12 14 16 18 84 86 88 90) (4 4 24) simpleGrading (1 1 1)
	hex (13 15 14 12 85 87 86 84) (4 4 24) simpleGrading (1 1 1)
	hex (19 17 15 13 91 89 87 85) (4 4 24) simpleGrading (1 1 1)
	hex (18 16 17 19 90 88 89 91) (4 4 24) simpleGrading (1 1 1)
	hex (10 12 18 20 82 84 90 92) (8 4 24) simpleGrading (0.2 1 1)
	hex (11 13 12 10 83 85 84 82) (8 4 24) simpleGrading (0.2 1 1)
	hex (21 19 13 11 93 91 85 83) (8 4 24) simpleGrading (0.2 1 1)
	hex (20 18 19 21 92 90 91 93) (8 4 24) simpleGrading (0.2 1 1)
	hex (86 87 89 88 158 159 161 160) (4 4 100) simpleGrading (1 1 1)
	hex (84 86 88 90 156 158 160 162) (4 4 100) simpleGrading (1 1 1)
	hex (85 87 86 84 157 159 158 156) (4 4 100) simpleGrading (1 1 1)
	hex (91 89 87 85 163 161 159 157) (4 4 100) simpleGrading (1 1 1)
	hex (90 88 89 91 162 160 161 163) (4 4 100) simpleGrading (1 1 1)
	hex (24 25 27 26 96 97 99 98) (4 4 24) simpleGrading (1 1 1)
	hex (22 24 26 28 94 96 98 100) (4 4 24) simpleGrading (1 1 1)
	hex (23 25 24 22 95 97 96 94) (4 4 24) simpleGrading (1 1 1)
	hex (29 27 25 23 101 99 97 95) (4 4 24) simpleGrading (1 1 1)
	hex (28 26 27 29 100 98 99 101) (4 4 24) simpleGrading (1 1 1)
	hex (20 22 28 30 92 94 100 102) (8 4 24) simpleGrading (0.2 1 1)
	hex (21 23 22 20 93 95 94 92) (8 4 24) simpleGrading (0.2 1 1)
	hex (31 29 23 21 103 101 95 93) (8 4 24) simpleGrading (0.2 1 1)
	hex (30 28 29 31 102 100 101 103) (8 4 24) simpleGrading (0.2 1 1)
	hex (96 97 99 98 168 169 171 170) (4 4 100) simpleGrading (1 1 1)
	hex (94 96 98 100 166 168 170 172) (4 4 100) simpleGrading (1 1 1)
	hex (95 97 96 94 167 169 168 166) (4 4 100) simpleGrading (1 1 1)
	hex (101 99 97 95 173 171 169 167) (4 4 100) simpleGrading (1 1 1)
	hex (100 98 99 101 172 170 171 173) (4 4 100) simpleGrading (1 1 1)
	hex (34 35 37 36 106 107 109 108) (4 4 24) simpleGrading (1 1 1)
	hex (32 34 36 38 104 106 108 110) (4 4 24) simpleGrading (1 1 1)
	hex (33 35 34 32 105 107 106 104) (4 4 24) simpleGrading (1 1 1)
	hex (39 37 35 33 111 109 107 105) (4 4 24) simpleGrading (1 1 1)
	hex (38 36 37 39 110 108 109 111) (4 4 24) simpleGrading (1 1 1)
	hex (30 32 38 40 102 104 110 112) (8 4 24) simpleGrading (0.2 1 1)
	hex (31 33 32 30 103 105 104 102) (8 4 24) simpleGrading (0.2 1 1)
	hex (41 39 33 31 113 111 105 103) (8 4 24) simpleGrading (0.2 1 1)
	hex (40 38 39 41 112 110 111 113) (8 4 24) simpleGrading (0.2 1 1)
	hex (106 107 109 108 178 179 181 180) (4 4 100) simpleGrading (1 1 1)
	hex (104 106 108 110 176 178 180 182) (4 4 100) simpleGrading (1 1 1)
	hex (105 107 106 104 177 179 178 176) (4 4 100) simpleGrading (1 1 1)
	hex (111 109 107 105 183 181 179 177) (4 4 100) simpleGrading (1 1 1)
	hex (110 108 109 111 182 180 181 183) (4 4 100) simpleGrading (1 1 1)
	hex (44 45 47 46 116 117 119 118) (4 4 24) simpleGrading (1 1 1)
	hex (42 44 46 48 114 116 118 120) (4 4 24) simpleGrading (1 1 1)
	hex (43 45 44 42 115 117 116 114) (4 4 24) simpleGrading (1 1 1)
	hex (49 47 45 43 121 119 117 115) (4 4 24) simpleGrading (1 1 1)
	hex (48 46 47 49 120 118 119 121) (4 4 24) simpleGrading (1 1 1)
	hex (40 42 48 50 112 114 120 122) (8 4 24) simpleGrading (0.2 1 1)
	hex (41 43 42 40 113 115 114 112) (8 4 24) simpleGrading (0.2 1 1)
	hex (51 49 43 41 123 121 115 113) (8 4 24) simpleGrading (0.2 1 1)
	hex (50 48 49 51 122 120 121 123) (8 4 24) simpleGrading (0.2 1 1)
	hex (116 117 119 118 188 189 191 190) (4 4 100) simpleGrading (1 1 1)
	hex (114 116 118 120 186 188 190 192) (4 4 100) simpleGrading (1 1 1)
	hex (115 117 116 114 187 189 188 186) (4 4 100) simpleGrading (1 1 1)
	hex (121 119 117 115 193 191 189 187) (4 4 100) simpleGrading (1 1 1)
	hex (120 118 119 121 192 190 191 193) (4 4 100) simpleGrading (1 1 1)
	hex (54 55 57 56 126 127 129 128) (4 4 24) simpleGrading (1 1 1)
	hex (52 54 56 58 124 126 128 130) (4 4 24) simpleGrading (1 1 1)
	hex (53 55 54 52 125 127 126 124) (4 4 24) simpleGrading (1 1 1)
	hex (59 57 55 53 131 129 127 125) (4 4 24) simpleGrading (1 1 1)
	hex (58 56 57 59 130 128 129 131) (4 4 24) simpleGrading (1 1 1)
	hex (50 52 58 60 122 124 130 132) (8 4 24) simpleGrading (0.2 1 1)
	hex (51 53 52 50 123 125 124 122) (8 4 24) simpleGrading (0.2 1 1)
	hex (61 59 53 51 133 131 125 123) (8 4 24) simpleGrading (0.2 1 1)
	hex (60 58 59 61 132 130 131 133) (8 4 24) simpleGrading (0.2 1 1)
	hex (126 127 129 128 198 199 201 200) (4 4 100) simpleGrading (1 1 1)
	hex (124 126 128 130 196 198 200 202) (4 4 100) simpleGrading (1 1 1)
	hex (125 127 126 124 197 199 198 196) (4 4 100) simpleGrading (1 1 1)
	hex (131 129 127 125 203 201 199 197) (4 4 100) simpleGrading (1 1 1)
	hex (130 128 129 131 202 200 201 203) (4 4 100) simpleGrading (1 1 1)
	hex (64 65 67 66 136 137 139 138) (4 4 24) simpleGrading (1 1 1)
	hex (62 64 66 68 134 136 138 140) (4 4 24) simpleGrading (1 1 1)
	hex (63 65 64 62 135 137 136 134) (4 4 24) simpleGrading (1 1 1)
	hex (69 67 65 63 141 139 137 135) (4 4 24) simpleGrading (1 1 1)
	hex (68 66 67 69 140 138 139 141) (4 4 24) simpleGrading (1 1 1)
	hex (60 62 68 70 132 134 140 142) (8 4 24) simpleGrading (0.2 1 1)
	hex (61 63 62 60 133 135 134 132) (8 4 24) simpleGrading (0.2 1 1)
	hex (71 69 63 61 143 141 135 133) (8 4 24) simpleGrading (0.2 1 1)
	hex (70 68 69 71 142 140 141 143) (8 4 24) simpleGrading (0.2 1 1)
	hex (136 137 139 138 208 209 211 210) (4 4 100) simpleGrading (1 1 1)
	hex (134 136 138 140 206 208 210 212) (4 4 100) simpleGrading (1 1 1)
	hex (135 137 136 134 207 209 208 206) (4 4 100) simpleGrading (1 1 1)
	hex (141 139 137 135 213 211 209 207) (4 4 100) simpleGrading (1 1 1)
	hex (140 138 139 141 212 210 211 213) (4 4 100) simpleGrading (1 1 1)

);

edges
(
	arc 2 3 (25.0 76.5 0)
	arc 3 9 (25.5 77.0 0)
	arc 9 8 (25.0 77.5 0)
	arc 8 2 (24.5 77.0 0)
	arc 74 75 (25.0 76.5 16.0)
	arc 75 81 (25.5 77.0 16.0)
	arc 81 80 (25.0 77.5 16.0)
	arc 80 74 (24.5 77.0 16.0)
	arc 12 13 (25.0 92.5 0)
	arc 13 19 (25.5 93.0 0)
	arc 19 18 (25.0 93.5 0)
	arc 18 12 (24.5 93.0 0)
	arc 84 85 (25.0 92.5 16.0)
	arc 85 91 (25.5 93.0 16.0)
	arc 91 90 (25.0 93.5 16.0)
	arc 90 84 (24.5 93.0 16.0)
	arc 22 23 (25.0 108.5 0)
	arc 23 29 (25.5 109.0 0)
	arc 29 28 (25.0 109.5 0)
	arc 28 22 (24.5 109.0 0)
	arc 94 95 (25.0 108.5 16.0)
	arc 95 101 (25.5 109.0 16.0)
	arc 101 100 (25.0 109.5 16.0)
	arc 100 94 (24.5 109.0 16.0)
	arc 32 33 (25.0 124.5 0)
	arc 33 39 (25.5 125.0 0)
	arc 39 38 (25.0 125.5 0)
	arc 38 32 (24.5 125.0 0)
	arc 104 105 (25.0 124.5 16.0)
	arc 105 111 (25.5 125.0 16.0)
	arc 111 110 (25.0 125.5 16.0)
	arc 110 104 (24.5 125.0 16.0)
	arc 42 43 (25.0 140.5 0)
	arc 43 49 (25.5 141.0 0)
	arc 49 48 (25.0 141.5 0)
	arc 48 42 (24.5 141.0 0)
	arc 114 115 (25.0 140.5 16.0)
	arc 115 121 (25.5 141.0 16.0)
	arc 121 120 (25.0 141.5 16.0)
	arc 120 114 (24.5 141.0 16.0)
	arc 52 53 (25.0 156.5 0)
	arc 53 59 (25.5 157.0 0)
	arc 59 58 (25.0 157.5 0)
	arc 58 52 (24.5 157.0 0)
	arc 124 125 (25.0 156.5 16.0)
	arc 125 131 (25.5 157.0 16.0)
	arc 131 130 (25.0 157.5 16.0)
	arc 130 124 (24.5 157.0 16.0)
	arc 62 63 (25.0 172.5 0)
	arc 63 69 (25.5 173.0 0)
	arc 69 68 (25.0 173.5 0)
	arc 68 62 (24.5 173.0 0)
	arc 134 135 (25.0 172.5 16.0)
	arc 135 141 (25.5 173.0 16.0)
	arc 141 140 (25.0 173.5 16.0)
	arc 140 134 (24.5 173.0 16.0)
	arc 146 147 (25.0 76.5 96.0)
	arc 147 153 (25.5 77.0 96.0)
	arc 153 152 (25.0 77.5 96.0)
	arc 152 146 (24.5 77.0 96.0)
	arc 156 157 (25.0 92.5 96.0)
	arc 157 163 (25.5 93.0 96.0)
	arc 163 162 (25.0 93.5 96.0)
	arc 162 156 (24.5 93.0 96.0)
	arc 166 167 (25.0 108.5 96.0)
	arc 167 173 (25.5 109.0 96.0)
	arc 173 172 (25.0 109.5 96.0)
	arc 172 166 (24.5 109.0 96.0)
	arc 176 177 (25.0 124.5 96.0)
	arc 177 183 (25.5 125.0 96.0)
	arc 183 182 (25.0 125.5 96.0)
	arc 182 176 (24.5 125.0 96.0)
	arc 186 187 (25.0 140.5 96.0)
	arc 187 193 (25.5 141.0 96.0)
	arc 193 192 (25.0 141.5 96.0)
	arc 192 186 (24.5 141.0 96.0)
	arc 196 197 (25.0 156.5 96.0)
	arc 197 203 (25.5 157.0 96.0)
	arc 203 202 (25.0 157.5 96.0)
	arc 202 196 (24.5 157.0 96.0)
	arc 206 207 (25.0 172.5 96.0)
	arc 207 213 (25.5 173.0 96.0)
	arc 213 212 (25.0 173.5 96.0)
	arc 212 206 (24.5 173.0 96.0)
);

patches
(
	patch bristle
	(
		(0 72 82 10)
		(11 83 73 1)
		(72 74 80 82)
		(73 75 74 72)
		(83 81 75 73)
		(82 80 81 83)
		(74 146 152 80)
		(75 147 146 74)
		(81 153 147 75)
		(80 152 153 81)
		(148 149 151 150)
		(146 148 150 152)
		(147 149 148 146)
		(153 151 149 147)
		(152 150 151 153)
		(10 82 92 20)
		(21 93 83 11)
		(82 84 90 92)
		(83 85 84 82)
		(93 91 85 83)
		(92 90 91 93)
		(84 156 162 90)
		(85 157 156 84)
		(91 163 157 85)
		(90 162 163 91)
		(158 159 161 160)
		(156 158 160 162)
		(157 159 158 156)
		(163 161 159 157)
		(162 160 161 163)
		(20 92 102 30)
		(31 103 93 21)
		(92 94 100 102)
		(93 95 94 92)
		(103 101 95 93)
		(102 100 101 103)
		(94 166 172 100)
		(95 167 166 94)
		(101 173 167 95)
		(100 172 173 101)
		(168 169 171 170)
		(166 168 170 172)
		(167 169 168 166)
		(173 171 169 167)
		(172 170 171 173)
		(30 102 112 40)
		(41 113 103 31)
		(102 104 110 112)
		(103 105 104 102)
		(113 111 105 103)
		(112 110 111 113)
		(104 176 182 110)
		(105 177 176 104)
		(111 183 177 105)
		(110 182 183 111)
		(178 179 181 180)
		(176 178 180 182)
		(177 179 178 176)
		(183 181 179 177)
		(182 180 181 183)
		(40 112 122 50)
		(51 123 113 41)
		(112 114 120 122)
		(113 115 114 112)
		(123 121 115 113)
		(122 120 121 123)
		(114 186 192 120)
		(115 187 186 114)
		(121 193 187 115)
		(120 192 193 121)
		(188 189 191 190)
		(186 188 190 192)
		(187 189 188 186)
		(193 191 189 187)
		(192 190 191 193)
		(50 122 132 60)
		(61 133 123 51)
		(122 124 130 132)
		(123 125 124 122)
		(133 131 125 123)
		(132 130 131 133)
		(124 196 202 130)
		(125 197 196 124)
		(131 203 197 125)
		(130 202 203 131)
		(198 199 201 200)
		(196 198 200 202)
		(197 199 198 196)
		(203 201 199 197)
		(202 200 201 203)
		(60 132 142 70)
		(71 143 133 61)
		(132 134 140 142)
		(133 135 134 132)
		(143 141 135 133)
		(142 140 141 143)
		(134 206 212 140)
		(135 207 206 134)
		(141 213 207 135)
		(140 212 213 141)
		(208 209 211 210)
		(206 208 210 212)
		(207 209 208 206)
		(213 211 209 207)
		(212 210 211 213)
		(0 1 73 72)
		(71 70 142 143)
	)

	patch plateFix
	(
		(6 7 5 4)
		(8 6 4 2)
		(2 4 5 3)
		(3 5 7 9)
		(9 7 6 8)
		(10 8 2 0)
		(0 2 3 1)
		(1 3 9 11)
		(11 9 8 10)
		(16 17 15 14)
		(18 16 14 12)
		(12 14 15 13)
		(13 15 17 19)
		(19 17 16 18)
		(20 18 12 10)
		(10 12 13 11)
		(11 13 19 21)
		(21 19 18 20)
		(26 27 25 24)
		(28 26 24 22)
		(22 24 25 23)
		(23 25 27 29)
		(29 27 26 28)
		(30 28 22 20)
		(20 22 23 21)
		(21 23 29 31)
		(31 29 28 30)
		(36 37 35 34)
		(38 36 34 32)
		(32 34 35 33)
		(33 35 37 39)
		(39 37 36 38)
		(40 38 32 30)
		(30 32 33 31)
		(31 33 39 41)
		(41 39 38 40)
		(46 47 45 44)
		(48 46 44 42)
		(42 44 45 43)
		(43 45 47 49)
		(49 47 46 48)
		(50 48 42 40)
		(40 42 43 41)
		(41 43 49 51)
		(51 49 48 50)
		(56 57 55 54)
		(58 56 54 52)
		(52 54 55 53)
		(53 55 57 59)
		(59 57 56 58)
		(60 58 52 50)
		(50 52 53 51)
		(51 53 59 61)
		(61 59 58 60)
		(66 67 65 64)
		(68 66 64 62)
		(62 64 65 63)
		(63 65 67 69)
		(69 67 66 68)
		(70 68 62 60)
		(60 62 63 61)
		(61 63 69 71)
		(71 69 68 70)
	)

);

mergePatchPairs
(
);


// ************************************************************************* //

