/*--------------------------------*- C++ -*----------------------------------*\
| =========                 |                                                 |
| \\      /  F ield         | foam-extend: Open Source CFD                    |
|  \\    /   O peration     | Version:     4.0                                |
|   \\  /    A nd           | Web:         http://www.foam-extend.org         |
|    \\/     M anipulation  |                                                 |
\*---------------------------------------------------------------------------*/
FoamFile
{
    version     2.0;
    format      ascii;
    class       dictionary;
    object      blockMeshDict;
}
// * * * * * * * * * * * * * * * * * * * * * * * * * * * * * * * * * * * * * //

convertToMeters 0.000001;

vertices
(
    (823.2233 823.2233 0)      //0=5
	(1176.7767 823.2233 0)      //1=6

    (911.6117 911.6117 0)      //2=8
	(1088.3883 911.6117 0)      //3=9
	(911.6117 1088.3883 0)      //4=10
	(1088.3883 1088.3883 0)      //5=11

    (823.2233 1176.7767 0)      //6=13
	(1176.7767 1176.7767 0)      //7=14

    (823.2233 823.2233 1500)      //8=25
	(1176.7767 823.2233 1500)      //9=26

	(911.6117 911.6117 1500)      //10=28
	(1088.3883 911.6117 1500)      //11=29
	(911.6117 1088.3883 1500)      //12=30
	(1088.3883 1088.3883 1500)      //13=31

	(823.2233 1176.7767 1500)      //14=33
	(1176.7767 1176.7767 1500)      //15=34
);

blocks
(
    hex (0 1 3 2 8 9 11 10) (20 20 40) simpleGrading (1 1 1)
    hex (3 1 7 5 11 9 15 13) (20 20 40) simpleGrading (1 1 1)
    hex (4 5 7 6 12 13 15 14) (20 20 40) simpleGrading (1 1 1)
    hex (0 2 4 6 8 10 12 14) (20 20 40) simpleGrading (1 1 1)
    hex (2 3 5 4 10 11 13 12) (20 20 40) simpleGrading(1 1 1)
);

edges
(
    arc 0 1 (1000.0 750.0 0)
    arc 1 7 (1250.0 1000.0 0)
    arc 7 6 (1000.0 1250.0 0)
    arc 6 0 (750.0 1000.0 0)
);

patches
(
    patch plateFix
    (
        (0 1 3 2)
        (3 1 7 5)
        (4 5 7 6)
        (0 2 4 6)
        (2 3 5 4)
    )

    patch bristle
    (
        (0 8 9 1)
        (1 9 15 7)
        (7 15 14 6)
        (6 14 8 0)
        (8 9 11 10)
        (11 9 15 13)
        (12 13 15 14)
        (8 10 12 14)
    )
);

mergePatchPairs
(
);


// ************************************************************************* //
