/*--------------------------------*- C++ -*----------------------------------*\
| =========                 |                                                 |
| \      /  F ield         | foam-extend: Open Source CFD                    |
|  \    /   O peration     | Version:     4.0                                |
|   \  /    A nd           | Web:         http://www.foam-extend.org         |
|    \/     M anipulation  |                                                 |
\*---------------------------------------------------------------------------*/
FoamFile
{
    version     2.0;
    format      ascii;
    class       dictionary;
    object      blockMeshDict;
}
// * * * * * * * * * * * * * * * * * * * * * * * * * * * * * * * * * * * * * //

convertToMeters 0.001;
vertices
(
	(0 -5 0)      //0
	(2 -5 0)      //1
	(0 -3.5 0)      //2
	(2 -3.5 0)      //3
	(0.6464 -2.8536 0)      //4
	(1.3536 -2.8536 0)      //5
	(0.8232 -2.6768 0)      //6
	(1.1768 -2.6768 0)      //7
	(0.8232 -2.3232 0)      //8
	(1.1768 -2.3232 0)      //9
	(0.6464 -2.1464 0)      //10
	(1.3536 -2.1464 0)      //11
	(0 -1.5 0)      //12
	(2 -1.5 0)      //13
	(0 0 0)      //14
	(2 0 0)      //15
	(0 -5 2)      //16
	(2 -5 2)      //17
	(0 -3.5 2)      //18
	(2 -3.5 2)      //19
	(0.6464 -2.8536 2)      //20
	(1.3536 -2.8536 2)      //21
	(0.8232 -2.6768 2)      //22
	(1.1768 -2.6768 2)      //23
	(0.8232 -2.3232 2)      //24
	(1.1768 -2.3232 2)      //25
	(0.6464 -2.1464 2)      //26
	(1.3536 -2.1464 2)      //27
	(0 -1.5 2)      //28
	(2 -1.5 2)      //29
	(0 0 2)      //30
	(2 0 2)      //31
	(0.6464 -2.8536 102)      //32
	(1.3536 -2.8536 102)      //33
	(0.8232 -2.6768 102)      //34
	(1.1768 -2.6768 102)      //35
	(0.8232 -2.3232 102)      //36
	(1.1768 -2.3232 102)      //37
	(0.6464 -2.1464 102)      //38
	(1.3536 -2.1464 102)      //39

);

blocks
(
	hex (0 1 3 2 16 17 19 18) (2 2 2) simpleGrading (1 1 1)
	hex (12 13 15 14 28 29 31 30) (2 2 2) simpleGrading (1 1 1)
	hex (6 7 9 8 22 23 25 24) (2 2 2) simpleGrading (1 1 1)
	hex (4 6 8 10 20 22 24 26) (2 2 2) simpleGrading (1 1 1)
	hex (5 7 6 4 21 23 22 20) (2 2 2) simpleGrading (1 1 1)
	hex (11 9 7 5 27 25 23 21) (2 2 2) simpleGrading (1 1 1)
	hex (10 8 9 11 26 24 25 27) (2 2 2) simpleGrading (1 1 1)
	hex (2 4 10 12 18 20 26 28) (2 2 2) simpleGrading (1 1 1)
	hex (3 5 4 2 19 21 20 18) (2 2 2) simpleGrading (1 1 1)
	hex (13 11 5 3 29 27 21 19) (2 2 2) simpleGrading (1 1 1)
	hex (12 10 11 13 28 26 27 29) (2 2 2) simpleGrading (1 1 1)
	hex (22 23 25 24 34 35 37 36) (2 2 600) simpleGrading (1 1 1)
	hex (20 22 24 26 32 34 36 38) (2 2 600) simpleGrading (1 1 1)
	hex (21 23 22 20 33 35 34 32) (2 2 600) simpleGrading (1 1 1)
	hex (27 25 23 21 39 37 35 33) (2 2 600) simpleGrading (1 1 1)
	hex (26 24 25 27 38 36 37 39) (2 2 600) simpleGrading (1 1 1)

);

edges
(
	arc 4 5 (1.0 -3.0 0)
	arc 5 11 (1.5 -2.5 0)
	arc 11 10 (1.0 -2.0 0)
	arc 10 4 (0.5 -2.5 0)
	arc 20 21 (1.0 -3.0 2)
	arc 21 27 (1.5 -2.5 2)
	arc 27 26 (1.0 -2.0 2)
	arc 26 20 (0.5 -2.5 2)
	arc 32 33 (1.0 -3.0 102)
	arc 33 39 (1.5 -2.5 102)
	arc 39 38 (1.0 -2.0 102)
	arc 38 32 (0.5 -2.5 102)
);

patches
(
	patch bristle_interFSI
	(
		(0 2 18 16)
		(2 0 1 3)
		(16 18 19 17)
		(3 1 17 19)
		(1 0 16 17)
		(12 14 30 28)
		(14 12 13 15)
		(28 30 31 29)
		(15 13 29 31)
		(14 15 31 30)
		(2 12 28 18)
		(3 19 29 13)
		(18 20 26 28)
		(19 21 20 18)
		(29 27 21 19)
		(28 26 27 29)
		(20 32 38 26)
		(21 33 32 20)
		(27 39 33 21)
		(26 38 39 27)
		(34 35 37 36)
		(32 34 36 38)
		(33 35 34 32)
		(39 37 35 33)
		(38 36 37 39)
		(2 4 10 12)
		(3 5 4 2)
		(13 11 5 3)
		(12 10 11 13)
	)

	patch plateFix
	(
		(8 9 7 6)
		(10 8 6 4)
		(4 6 7 5)
		(5 7 9 11)
		(11 9 8 10)
	)

);

mergePatchPairs
(
);


// ************************************************************************* //

