/*--------------------------------*- C++ -*----------------------------------*\
| =========                 |                                                 |
| \      /  F ield         | foam-extend: Open Source CFD                    |
|  \    /   O peration     | Version:     4.0                                |
|   \  /    A nd           | Web:         http://www.foam-extend.org         |
|    \/     M anipulation  |                                                 |
\*---------------------------------------------------------------------------*/
FoamFile
{
    version     2.0;
    format      ascii;
    class       dictionary;
    object      blockMeshDict;
}
// * * * * * * * * * * * * * * * * * * * * * * * * * * * * * * * * * * * * * //

convertToMeters 0.001;
vertices
(
	(600 550 0)      //0
	(1200 550 0)      //1
	(600 1100 0)      //2
	(1200 1100 0)      //3
	(600 1650 0)      //4
	(1200 1650 0)      //5
	(600 2200 0)      //6
	(1200 2200 0)      //7
	(600 2750 0)      //8
	(1200 2750 0)      //9
	(600 3300 0)      //10
	(1200 3300 0)      //11
	(723.2233 1748.2233 0)      //12
	(1076.7767 1748.2233 0)      //13
	(723.2233 2101.7767 0)      //14
	(1076.7767 2101.7767 0)      //15
	(723.2233 648.2233 0)      //16
	(1076.7767 648.2233 0)      //17
	(723.2233 1001.7767 0)      //18
	(1076.7767 1001.7767 0)      //19
	(723.2233 2848.2233 0)      //20
	(1076.7767 2848.2233 0)      //21
	(723.2233 3201.7767 0)      //22
	(1076.7767 3201.7767 0)      //23
	(723.2233 1198.2233 0)      //24
	(1076.7767 1198.2233 0)      //25
	(723.2233 1551.7767 0)      //26
	(1076.7767 1551.7767 0)      //27
	(723.2233 2298.2233 0)      //28
	(1076.7767 2298.2233 0)      //29
	(723.2233 2651.7767 0)      //30
	(1076.7767 2651.7767 0)      //31
	(811.6117 1836.6117 0)      //32
	(988.3883 1836.6117 0)      //33
	(988.3883 2013.3883 0)      //34
	(811.6117 2013.3883 0)      //35
	(811.6117 736.6117 0)      //36
	(988.3883 736.6117 0)      //37
	(988.3883 913.3883 0)      //38
	(811.6117 913.3883 0)      //39
	(811.6117 2936.6117 0)      //40
	(988.3883 2936.6117 0)      //41
	(988.3883 3113.3883 0)      //42
	(811.6117 3113.3883 0)      //43
	(811.6117 1286.6117 0)      //44
	(988.3883 1286.6117 0)      //45
	(988.3883 1463.3883 0)      //46
	(811.6117 1463.3883 0)      //47
	(811.6117 2386.6117 0)      //48
	(988.3883 2386.6117 0)      //49
	(988.3883 2563.3883 0)      //50
	(811.6117 2563.3883 0)      //51

	(600 550 150)      //52
	(1200 550 150)      //53
	(600 1100 150)      //54
	(1200 1100 150)      //55
	(600 1650 150)      //56
	(1200 1650 150)      //57
	(600 2200 150)      //58
	(1200 2200 150)      //59
	(600 2750 150)      //60
	(1200 2750 150)      //61
	(600 3300 150)      //62
	(1200 3300 150)      //63
	(723.2233 1748.2233 150)      //64
	(1076.7767 1748.2233 150)      //65
	(723.2233 2101.7767 150)      //66
	(1076.7767 2101.7767 150)      //67
	(723.2233 648.2233 150)      //68
	(1076.7767 648.2233 150)      //69
	(723.2233 1001.7767 150)      //70
	(1076.7767 1001.7767 150)      //71
	(723.2233 2848.2233 150)      //72
	(1076.7767 2848.2233 150)      //73
	(723.2233 3201.7767 150)      //74
	(1076.7767 3201.7767 150)      //75
	(723.2233 1198.2233 150)      //76
	(1076.7767 1198.2233 150)      //77
	(723.2233 1551.7767 150)      //78
	(1076.7767 1551.7767 150)      //79
	(723.2233 2298.2233 150)      //80
	(1076.7767 2298.2233 150)      //81
	(723.2233 2651.7767 150)      //82
	(1076.7767 2651.7767 150)      //83
	(811.6117 1836.6117 150)      //84
	(988.3883 1836.6117 150)      //85
	(988.3883 2013.3883 150)      //86
	(811.6117 2013.3883 150)      //87
	(811.6117 736.6117 150)      //88
	(988.3883 736.6117 150)      //89
	(988.3883 913.3883 150)      //90
	(811.6117 913.3883 150)      //91
	(811.6117 2936.6117 150)      //92
	(988.3883 2936.6117 150)      //93
	(988.3883 3113.3883 150)      //94
	(811.6117 3113.3883 150)      //95
	(811.6117 1286.6117 150)      //96
	(988.3883 1286.6117 150)      //97
	(988.3883 1463.3883 150)      //98
	(811.6117 1463.3883 150)      //99
	(811.6117 2386.6117 150)      //100
	(988.3883 2386.6117 150)      //101
	(988.3883 2563.3883 150)      //102
	(811.6117 2563.3883 150)      //103

	(723.2233 1748.2233 1650)      //104
	(1076.7767 1748.2233 1650)      //105
	(723.2233 2101.7767 1650)      //106
	(1076.7767 2101.7767 1650)      //107
	(723.2233 648.2233 1650)      //108
	(1076.7767 648.2233 1650)      //109
	(723.2233 1001.7767 1650)      //110
	(1076.7767 1001.7767 1650)      //111
	(723.2233 2848.2233 1650)      //112
	(1076.7767 2848.2233 1650)      //113
	(723.2233 3201.7767 1650)      //114
	(1076.7767 3201.7767 1650)      //115
	(723.2233 1198.2233 1650)      //116
	(1076.7767 1198.2233 1650)      //117
	(723.2233 1551.7767 1650)      //118
	(1076.7767 1551.7767 1650)      //119
	(723.2233 2298.2233 1650)      //120
	(1076.7767 2298.2233 1650)      //121
	(723.2233 2651.7767 1650)      //122
	(1076.7767 2651.7767 1650)      //123
	(811.6117 1836.6117 1650)      //124
	(988.3883 1836.6117 1650)      //125
	(988.3883 2013.3883 1650)      //126
	(811.6117 2013.3883 1650)      //127
	(811.6117 736.6117 1650)      //128
	(988.3883 736.6117 1650)      //129
	(988.3883 913.3883 1650)      //130
	(811.6117 913.3883 1650)      //131
	(811.6117 2936.6117 1650)      //132
	(988.3883 2936.6117 1650)      //133
	(988.3883 3113.3883 1650)      //134
	(811.6117 3113.3883 1650)      //135
	(811.6117 1286.6117 1650)      //136
	(988.3883 1286.6117 1650)      //137
	(988.3883 1463.3883 1650)      //138
	(811.6117 1463.3883 1650)      //139
	(811.6117 2386.6117 1650)      //140
	(988.3883 2386.6117 1650)      //141
	(988.3883 2563.3883 1650)      //142
	(811.6117 2563.3883 1650)      //143

);

blocks
(
	hex (36 37 38 39 88 89 90 91) (5 5 1) simpleGrading (1 1 1)
	hex (16 36 39 18 68 88 91 70) (5 5 1) simpleGrading (1 1 1)
	hex (17 37 36 16 69 89 88 68) (5 5 1) simpleGrading (1 1 1)
	hex (19 38 37 17 71 90 89 69) (5 5 1) simpleGrading (1 1 1)
	hex (18 39 38 19 70 91 90 71) (5 5 1) simpleGrading (1 1 1)
	hex (0 16 18 2 52 68 70 54) (5 5 1) simpleGrading (1 1 1)
	hex (1 17 16 0 53 69 68 52) (5 5 1) simpleGrading (1 1 1)
	hex (3 19 17 1 55 71 69 53) (5 5 1) simpleGrading (1 1 1)
	hex (2 18 19 3 54 70 71 55) (5 5 1) simpleGrading (1 1 1)
	hex (88 89 90 91 128 129 130 131) (5 5 10) simpleGrading (1 1 1)
	hex (68 88 91 70 108 128 131 110) (5 5 10) simpleGrading (1 1 1)
	hex (69 89 88 68 109 129 128 108) (5 5 10) simpleGrading (1 1 1)
	hex (71 90 89 69 111 130 129 109) (5 5 10) simpleGrading (1 1 1)
	hex (70 91 90 71 110 131 130 111) (5 5 10) simpleGrading (1 1 1)
	hex (44 45 46 47 96 97 98 99) (5 5 1) simpleGrading (1 1 1)
	hex (24 44 47 26 76 96 99 78) (5 5 1) simpleGrading (1 1 1)
	hex (25 45 44 24 77 97 96 76) (5 5 1) simpleGrading (1 1 1)
	hex (27 46 45 25 79 98 97 77) (5 5 1) simpleGrading (1 1 1)
	hex (26 47 46 27 78 99 98 79) (5 5 1) simpleGrading (1 1 1)
	hex (2 24 26 4 54 76 78 56) (5 5 1) simpleGrading (1 1 1)
	hex (3 25 24 2 55 77 76 54) (5 5 1) simpleGrading (1 1 1)
	hex (5 27 25 3 57 79 77 55) (5 5 1) simpleGrading (1 1 1)
	hex (4 26 27 5 56 78 79 57) (5 5 1) simpleGrading (1 1 1)
	hex (96 97 98 99 136 137 138 139) (5 5 10) simpleGrading (1 1 1)
	hex (76 96 99 78 116 136 139 118) (5 5 10) simpleGrading (1 1 1)
	hex (77 97 96 76 117 137 136 116) (5 5 10) simpleGrading (1 1 1)
	hex (79 98 97 77 119 138 137 117) (5 5 10) simpleGrading (1 1 1)
	hex (78 99 98 79 118 139 138 119) (5 5 10) simpleGrading (1 1 1)
	hex (32 33 34 35 84 85 86 87) (5 5 1) simpleGrading (1 1 1)
	hex (12 32 35 14 64 84 87 66) (5 5 1) simpleGrading (1 1 1)
	hex (13 33 32 12 65 85 84 64) (5 5 1) simpleGrading (1 1 1)
	hex (15 34 33 13 67 86 85 65) (5 5 1) simpleGrading (1 1 1)
	hex (14 35 34 15 66 87 86 67) (5 5 1) simpleGrading (1 1 1)
	hex (4 12 14 6 56 64 66 58) (5 5 1) simpleGrading (1 1 1)
	hex (5 13 12 4 57 65 64 56) (5 5 1) simpleGrading (1 1 1)
	hex (7 15 13 5 59 67 65 57) (5 5 1) simpleGrading (1 1 1)
	hex (6 14 15 7 58 66 67 59) (5 5 1) simpleGrading (1 1 1)
	hex (84 85 86 87 124 125 126 127) (5 5 10) simpleGrading (1 1 1)
	hex (64 84 87 66 104 124 127 106) (5 5 10) simpleGrading (1 1 1)
	hex (65 85 84 64 105 125 124 104) (5 5 10) simpleGrading (1 1 1)
	hex (67 86 85 65 107 126 125 105) (5 5 10) simpleGrading (1 1 1)
	hex (66 87 86 67 106 127 126 107) (5 5 10) simpleGrading (1 1 1)
	hex (48 49 50 51 100 101 102 103) (5 5 1) simpleGrading (1 1 1)
	hex (28 48 51 30 80 100 103 82) (5 5 1) simpleGrading (1 1 1)
	hex (29 49 48 28 81 101 100 80) (5 5 1) simpleGrading (1 1 1)
	hex (31 50 49 29 83 102 101 81) (5 5 1) simpleGrading (1 1 1)
	hex (30 51 50 31 82 103 102 83) (5 5 1) simpleGrading (1 1 1)
	hex (6 28 30 8 58 80 82 60) (5 5 1) simpleGrading (1 1 1)
	hex (7 29 28 6 59 81 80 58) (5 5 1) simpleGrading (1 1 1)
	hex (9 31 29 7 61 83 81 59) (5 5 1) simpleGrading (1 1 1)
	hex (8 30 31 9 60 82 83 61) (5 5 1) simpleGrading (1 1 1)
	hex (100 101 102 103 140 141 142 143) (5 5 10) simpleGrading (1 1 1)
	hex (80 100 103 82 120 140 143 122) (5 5 10) simpleGrading (1 1 1)
	hex (81 101 100 80 121 141 140 120) (5 5 10) simpleGrading (1 1 1)
	hex (83 102 101 81 123 142 141 121) (5 5 10) simpleGrading (1 1 1)
	hex (82 103 102 83 122 143 142 123) (5 5 10) simpleGrading (1 1 1)
	hex (40 41 42 43 92 93 94 95) (5 5 1) simpleGrading (1 1 1)
	hex (20 40 43 22 72 92 95 74) (5 5 1) simpleGrading (1 1 1)
	hex (21 41 40 20 73 93 92 72) (5 5 1) simpleGrading (1 1 1)
	hex (23 42 41 21 75 94 93 73) (5 5 1) simpleGrading (1 1 1)
	hex (22 43 42 23 74 95 94 75) (5 5 1) simpleGrading (1 1 1)
	hex (8 20 22 10 60 72 74 62) (5 5 1) simpleGrading (1 1 1)
	hex (9 21 20 8 61 73 72 60) (5 5 1) simpleGrading (1 1 1)
	hex (11 23 21 9 63 75 73 61) (5 5 1) simpleGrading (1 1 1)
	hex (10 22 23 11 62 74 75 63) (5 5 1) simpleGrading (1 1 1)
	hex (92 93 94 95 132 133 134 135) (5 5 10) simpleGrading (1 1 1)
	hex (72 92 95 74 112 132 135 114) (5 5 10) simpleGrading (1 1 1)
	hex (73 93 92 72 113 133 132 112) (5 5 10) simpleGrading (1 1 1)
	hex (75 94 93 73 115 134 133 113) (5 5 10) simpleGrading (1 1 1)
	hex (74 95 94 75 114 135 134 115) (5 5 10) simpleGrading (1 1 1)

);

edges
(
	arc 16 17 (900.0 1675.0 0)
	arc 17 19 (1150.0 1925.0 0)
	arc 19 18 (900.0 2175.0 0)
	arc 18 16 (650.0 1925.0 0)
	arc 68 69 (900.0 1675.0 150)
	arc 69 71 (1150.0 1925.0 150)
	arc 71 70 (900.0 2175.0 150)
	arc 70 68 (650.0 1925.0 150)
	arc 24 25 (900.0 1675.0 0)
	arc 25 27 (1150.0 1925.0 0)
	arc 27 26 (900.0 2175.0 0)
	arc 26 24 (650.0 1925.0 0)
	arc 76 77 (900.0 1675.0 150)
	arc 77 79 (1150.0 1925.0 150)
	arc 79 78 (900.0 2175.0 150)
	arc 78 76 (650.0 1925.0 150)
	arc 12 13 (900.0 1675.0 0)
	arc 13 15 (1150.0 1925.0 0)
	arc 15 14 (900.0 2175.0 0)
	arc 14 12 (650.0 1925.0 0)
	arc 64 65 (900.0 1675.0 150)
	arc 65 67 (1150.0 1925.0 150)
	arc 67 66 (900.0 2175.0 150)
	arc 66 64 (650.0 1925.0 150)
	arc 28 29 (900.0 1675.0 0)
	arc 29 31 (1150.0 1925.0 0)
	arc 31 30 (900.0 2175.0 0)
	arc 30 28 (650.0 1925.0 0)
	arc 80 81 (900.0 1675.0 150)
	arc 81 83 (1150.0 1925.0 150)
	arc 83 82 (900.0 2175.0 150)
	arc 82 80 (650.0 1925.0 150)
	arc 20 21 (900.0 1675.0 0)
	arc 21 23 (1150.0 1925.0 0)
	arc 23 22 (900.0 2175.0 0)
	arc 22 20 (650.0 1925.0 0)
	arc 72 73 (900.0 1675.0 150)
	arc 73 75 (1150.0 1925.0 150)
	arc 75 74 (900.0 2175.0 150)
	arc 74 72 (650.0 1925.0 150)
	arc 108 109 (900.0 1675.0 1650)
	arc 109 111 (1150.0 1925.0 1650)
	arc 111 110 (900.0 2175.0 1650)
	arc 110 108 (650.0 1925.0 1650)
	arc 116 117 (900.0 1675.0 1650)
	arc 117 119 (1150.0 1925.0 1650)
	arc 119 118 (900.0 2175.0 1650)
	arc 118 116 (650.0 1925.0 1650)
	arc 104 105 (900.0 1675.0 1650)
	arc 105 107 (1150.0 1925.0 1650)
	arc 107 106 (900.0 2175.0 1650)
	arc 106 104 (650.0 1925.0 1650)
	arc 120 121 (900.0 1675.0 1650)
	arc 121 123 (1150.0 1925.0 1650)
	arc 123 122 (900.0 2175.0 1650)
	arc 122 120 (650.0 1925.0 1650)
	arc 112 113 (900.0 1675.0 1650)
	arc 113 115 (1150.0 1925.0 1650)
	arc 115 114 (900.0 2175.0 1650)
	arc 114 112 (650.0 1925.0 1650)
);

patches
(
	patch bristle
	(
		(0 52 54 2)
		(3 55 53 1)
		(52 68 70 54)
		(53 69 68 52)
		(55 71 69 53)
		(54 70 71 55)
		(68 108 110 70)
		(69 109 108 68)
		(71 111 109 69)
		(70 110 111 71)
		(128 129 130 131)
		(108 128 131 110)
		(109 129 128 108)
		(111 130 129 109)
		(110 131 130 111)
		(2 54 56 4)
		(5 57 55 3)
		(54 76 78 56)
		(55 77 76 54)
		(57 79 77 55)
		(56 78 79 57)
		(76 116 118 78)
		(77 117 116 76)
		(79 119 117 77)
		(78 118 119 79)
		(136 137 138 139)
		(116 136 139 118)
		(117 137 136 116)
		(119 138 137 117)
		(118 139 138 119)
		(4 56 58 6)
		(7 59 57 5)
		(56 64 66 58)
		(57 65 64 56)
		(59 67 65 57)
		(58 66 67 59)
		(64 104 106 66)
		(65 105 104 64)
		(67 107 105 65)
		(66 106 107 67)
		(124 125 126 127)
		(104 124 127 106)
		(105 125 124 104)
		(107 126 125 105)
		(106 127 126 107)
		(6 58 60 8)
		(9 61 59 7)
		(58 80 82 60)
		(59 81 80 58)
		(61 83 81 59)
		(60 82 83 61)
		(80 120 122 82)
		(81 121 120 80)
		(83 123 121 81)
		(82 122 123 83)
		(140 141 142 143)
		(120 140 143 122)
		(121 141 140 120)
		(123 142 141 121)
		(122 143 142 123)
		(8 60 62 10)
		(11 63 61 9)
		(60 72 74 62)
		(61 73 72 60)
		(63 75 73 61)
		(62 74 75 63)
		(72 112 114 74)
		(73 113 112 72)
		(75 115 113 73)
		(74 114 115 75)
		(132 133 134 135)
		(112 132 135 114)
		(113 133 132 112)
		(115 134 133 113)
		(114 135 134 115)
		(0 1 53 52)
		(11 10 62 63)
	)

	patch plateFix
	(
		(2 18 16 0)
		(0 16 17 1)
		(1 17 19 3)
		(3 19 18 2)
		(39 38 37 36)
		(18 39 36 16)
		(16 36 37 17)
		(17 37 38 19)
		(19 38 39 18)
		(4 26 24 2)
		(2 24 25 3)
		(3 25 27 5)
		(5 27 26 4)
		(47 46 45 44)
		(26 47 44 24)
		(24 44 45 25)
		(25 45 46 27)
		(27 46 47 26)
		(6 14 12 4)
		(4 12 13 5)
		(5 13 15 7)
		(7 15 14 6)
		(35 34 33 32)
		(14 35 32 12)
		(12 32 33 13)
		(13 33 34 15)
		(15 34 35 14)
		(8 30 28 6)
		(6 28 29 7)
		(7 29 31 9)
		(9 31 30 8)
		(51 50 49 48)
		(30 51 48 28)
		(28 48 49 29)
		(29 49 50 31)
		(31 50 51 30)
		(10 22 20 8)
		(8 20 21 9)
		(9 21 23 11)
		(11 23 22 10)
		(43 42 41 40)
		(22 43 40 20)
		(20 40 41 21)
		(21 41 42 23)
		(23 42 43 22)
	)

);

mergePatchPairs
(
);


// ************************************************************************* //

