/*--------------------------------*- C++ -*----------------------------------*\
| =========                 |                                                 |
| \      /  F ield         | foam-extend: Open Source CFD                    |
|  \    /   O peration     | Version:     4.0                                |
|   \  /    A nd           | Web:         http://www.foam-extend.org         |
|    \/     M anipulation  |                                                 |
\*---------------------------------------------------------------------------*/
FoamFile
{
    version     2.0;
    format      ascii;
    class       dictionary;
    object      blockMeshDict;
}
// * * * * * * * * * * * * * * * * * * * * * * * * * * * * * * * * * * * * * //

convertToMeters 0.001;
vertices
(
	(102 42 0)      //0
	(108 42 0)      //1
	(104.6464 44.6464 0)      //2
	(105.3536 44.6464 0)      //3
	(104.8232 44.8232 0)      //4
	(105.1768 44.8232 0)      //5
	(104.8232 45.1768 0)      //6
	(105.1768 45.1768 0)      //7
	(104.6464 45.3536 0)      //8
	(105.3536 45.3536 0)      //9
	(102 48 0)      //10
	(108 48 0)      //11
	(104.6464 50.6464 0)      //12
	(105.3536 50.6464 0)      //13
	(104.8232 50.8232 0)      //14
	(105.1768 50.8232 0)      //15
	(104.8232 51.1768 0)      //16
	(105.1768 51.1768 0)      //17
	(104.6464 51.3536 0)      //18
	(105.3536 51.3536 0)      //19
	(102 54 0)      //20
	(108 54 0)      //21
	(104.6464 56.6464 0)      //22
	(105.3536 56.6464 0)      //23
	(104.8232 56.8232 0)      //24
	(105.1768 56.8232 0)      //25
	(104.8232 57.1768 0)      //26
	(105.1768 57.1768 0)      //27
	(104.6464 57.3536 0)      //28
	(105.3536 57.3536 0)      //29
	(102 60 0)      //30
	(108 60 0)      //31
	(104.6464 62.6464 0)      //32
	(105.3536 62.6464 0)      //33
	(104.8232 62.8232 0)      //34
	(105.1768 62.8232 0)      //35
	(104.8232 63.1768 0)      //36
	(105.1768 63.1768 0)      //37
	(104.6464 63.3536 0)      //38
	(105.3536 63.3536 0)      //39
	(102 66 0)      //40
	(108 66 0)      //41
	(104.6464 68.6464 0)      //42
	(105.3536 68.6464 0)      //43
	(104.8232 68.8232 0)      //44
	(105.1768 68.8232 0)      //45
	(104.8232 69.1768 0)      //46
	(105.1768 69.1768 0)      //47
	(104.6464 69.3536 0)      //48
	(105.3536 69.3536 0)      //49
	(102 72 0)      //50
	(108 72 0)      //51
	(104.6464 74.6464 0)      //52
	(105.3536 74.6464 0)      //53
	(104.8232 74.8232 0)      //54
	(105.1768 74.8232 0)      //55
	(104.8232 75.1768 0)      //56
	(105.1768 75.1768 0)      //57
	(104.6464 75.3536 0)      //58
	(105.3536 75.3536 0)      //59
	(102 78 0)      //60
	(108 78 0)      //61
	(104.6464 80.6464 0)      //62
	(105.3536 80.6464 0)      //63
	(104.8232 80.8232 0)      //64
	(105.1768 80.8232 0)      //65
	(104.8232 81.1768 0)      //66
	(105.1768 81.1768 0)      //67
	(104.6464 81.3536 0)      //68
	(105.3536 81.3536 0)      //69
	(102 84 0)      //70
	(108 84 0)      //71
	(102 42 1)      //72
	(108 42 1)      //73
	(104.6464 44.6464 1)      //74
	(105.3536 44.6464 1)      //75
	(104.8232 44.8232 1)      //76
	(105.1768 44.8232 1)      //77
	(104.8232 45.1768 1)      //78
	(105.1768 45.1768 1)      //79
	(104.6464 45.3536 1)      //80
	(105.3536 45.3536 1)      //81
	(102 48 1)      //82
	(108 48 1)      //83
	(104.6464 50.6464 1)      //84
	(105.3536 50.6464 1)      //85
	(104.8232 50.8232 1)      //86
	(105.1768 50.8232 1)      //87
	(104.8232 51.1768 1)      //88
	(105.1768 51.1768 1)      //89
	(104.6464 51.3536 1)      //90
	(105.3536 51.3536 1)      //91
	(102 54 1)      //92
	(108 54 1)      //93
	(104.6464 56.6464 1)      //94
	(105.3536 56.6464 1)      //95
	(104.8232 56.8232 1)      //96
	(105.1768 56.8232 1)      //97
	(104.8232 57.1768 1)      //98
	(105.1768 57.1768 1)      //99
	(104.6464 57.3536 1)      //100
	(105.3536 57.3536 1)      //101
	(102 60 1)      //102
	(108 60 1)      //103
	(104.6464 62.6464 1)      //104
	(105.3536 62.6464 1)      //105
	(104.8232 62.8232 1)      //106
	(105.1768 62.8232 1)      //107
	(104.8232 63.1768 1)      //108
	(105.1768 63.1768 1)      //109
	(104.6464 63.3536 1)      //110
	(105.3536 63.3536 1)      //111
	(102 66 1)      //112
	(108 66 1)      //113
	(104.6464 68.6464 1)      //114
	(105.3536 68.6464 1)      //115
	(104.8232 68.8232 1)      //116
	(105.1768 68.8232 1)      //117
	(104.8232 69.1768 1)      //118
	(105.1768 69.1768 1)      //119
	(104.6464 69.3536 1)      //120
	(105.3536 69.3536 1)      //121
	(102 72 1)      //122
	(108 72 1)      //123
	(104.6464 74.6464 1)      //124
	(105.3536 74.6464 1)      //125
	(104.8232 74.8232 1)      //126
	(105.1768 74.8232 1)      //127
	(104.8232 75.1768 1)      //128
	(105.1768 75.1768 1)      //129
	(104.6464 75.3536 1)      //130
	(105.3536 75.3536 1)      //131
	(102 78 1)      //132
	(108 78 1)      //133
	(104.6464 80.6464 1)      //134
	(105.3536 80.6464 1)      //135
	(104.8232 80.8232 1)      //136
	(105.1768 80.8232 1)      //137
	(104.8232 81.1768 1)      //138
	(105.1768 81.1768 1)      //139
	(104.6464 81.3536 1)      //140
	(105.3536 81.3536 1)      //141
	(102 84 1)      //142
	(108 84 1)      //143
	(102 42 101)      //144
	(108 42 101)      //145
	(104.6464 44.6464 101)      //146
	(105.3536 44.6464 101)      //147
	(104.8232 44.8232 101)      //148
	(105.1768 44.8232 101)      //149
	(104.8232 45.1768 101)      //150
	(105.1768 45.1768 101)      //151
	(104.6464 45.3536 101)      //152
	(105.3536 45.3536 101)      //153
	(102 48 101)      //154
	(108 48 101)      //155
	(104.6464 50.6464 101)      //156
	(105.3536 50.6464 101)      //157
	(104.8232 50.8232 101)      //158
	(105.1768 50.8232 101)      //159
	(104.8232 51.1768 101)      //160
	(105.1768 51.1768 101)      //161
	(104.6464 51.3536 101)      //162
	(105.3536 51.3536 101)      //163
	(102 54 101)      //164
	(108 54 101)      //165
	(104.6464 56.6464 101)      //166
	(105.3536 56.6464 101)      //167
	(104.8232 56.8232 101)      //168
	(105.1768 56.8232 101)      //169
	(104.8232 57.1768 101)      //170
	(105.1768 57.1768 101)      //171
	(104.6464 57.3536 101)      //172
	(105.3536 57.3536 101)      //173
	(102 60 101)      //174
	(108 60 101)      //175
	(104.6464 62.6464 101)      //176
	(105.3536 62.6464 101)      //177
	(104.8232 62.8232 101)      //178
	(105.1768 62.8232 101)      //179
	(104.8232 63.1768 101)      //180
	(105.1768 63.1768 101)      //181
	(104.6464 63.3536 101)      //182
	(105.3536 63.3536 101)      //183
	(102 66 101)      //184
	(108 66 101)      //185
	(104.6464 68.6464 101)      //186
	(105.3536 68.6464 101)      //187
	(104.8232 68.8232 101)      //188
	(105.1768 68.8232 101)      //189
	(104.8232 69.1768 101)      //190
	(105.1768 69.1768 101)      //191
	(104.6464 69.3536 101)      //192
	(105.3536 69.3536 101)      //193
	(102 72 101)      //194
	(108 72 101)      //195
	(104.6464 74.6464 101)      //196
	(105.3536 74.6464 101)      //197
	(104.8232 74.8232 101)      //198
	(105.1768 74.8232 101)      //199
	(104.8232 75.1768 101)      //200
	(105.1768 75.1768 101)      //201
	(104.6464 75.3536 101)      //202
	(105.3536 75.3536 101)      //203
	(102 78 101)      //204
	(108 78 101)      //205
	(104.6464 80.6464 101)      //206
	(105.3536 80.6464 101)      //207
	(104.8232 80.8232 101)      //208
	(105.1768 80.8232 101)      //209
	(104.8232 81.1768 101)      //210
	(105.1768 81.1768 101)      //211
	(104.6464 81.3536 101)      //212
	(105.3536 81.3536 101)      //213
	(102 84 101)      //214
	(108 84 101)      //215

);

blocks
(
	hex (4 5 7 6 76 77 79 78) (4 4 1) simpleGrading (1 1 1)
	hex (2 4 6 8 74 76 78 80) (4 4 1) simpleGrading (1 1 1)
	hex (3 5 4 2 75 77 76 74) (4 4 1) simpleGrading (1 1 1)
	hex (9 7 5 3 81 79 77 75) (4 4 1) simpleGrading (1 1 1)
	hex (8 6 7 9 80 78 79 81) (4 4 1) simpleGrading (1 1 1)
	hex (0 2 8 10 72 74 80 82) (4 4 1) simpleGrading (1 1 1)
	hex (1 3 2 0 73 75 74 72) (4 4 1) simpleGrading (1 1 1)
	hex (11 9 3 1 83 81 75 73) (4 4 1) simpleGrading (1 1 1)
	hex (10 8 9 11 82 80 81 83) (4 4 1) simpleGrading (1 1 1)
	hex (76 77 79 78 148 149 151 150) (4 4 160) simpleGrading (1 1 1)
	hex (74 76 78 80 146 148 150 152) (4 4 160) simpleGrading (1 1 1)
	hex (75 77 76 74 147 149 148 146) (4 4 160) simpleGrading (1 1 1)
	hex (81 79 77 75 153 151 149 147) (4 4 160) simpleGrading (1 1 1)
	hex (80 78 79 81 152 150 151 153) (4 4 160) simpleGrading (1 1 1)
	hex (14 15 17 16 86 87 89 88) (4 4 1) simpleGrading (1 1 1)
	hex (12 14 16 18 84 86 88 90) (4 4 1) simpleGrading (1 1 1)
	hex (13 15 14 12 85 87 86 84) (4 4 1) simpleGrading (1 1 1)
	hex (19 17 15 13 91 89 87 85) (4 4 1) simpleGrading (1 1 1)
	hex (18 16 17 19 90 88 89 91) (4 4 1) simpleGrading (1 1 1)
	hex (10 12 18 20 82 84 90 92) (4 4 1) simpleGrading (1 1 1)
	hex (11 13 12 10 83 85 84 82) (4 4 1) simpleGrading (1 1 1)
	hex (21 19 13 11 93 91 85 83) (4 4 1) simpleGrading (1 1 1)
	hex (20 18 19 21 92 90 91 93) (4 4 1) simpleGrading (1 1 1)
	hex (86 87 89 88 158 159 161 160) (4 4 160) simpleGrading (1 1 1)
	hex (84 86 88 90 156 158 160 162) (4 4 160) simpleGrading (1 1 1)
	hex (85 87 86 84 157 159 158 156) (4 4 160) simpleGrading (1 1 1)
	hex (91 89 87 85 163 161 159 157) (4 4 160) simpleGrading (1 1 1)
	hex (90 88 89 91 162 160 161 163) (4 4 160) simpleGrading (1 1 1)
	hex (24 25 27 26 96 97 99 98) (4 4 1) simpleGrading (1 1 1)
	hex (22 24 26 28 94 96 98 100) (4 4 1) simpleGrading (1 1 1)
	hex (23 25 24 22 95 97 96 94) (4 4 1) simpleGrading (1 1 1)
	hex (29 27 25 23 101 99 97 95) (4 4 1) simpleGrading (1 1 1)
	hex (28 26 27 29 100 98 99 101) (4 4 1) simpleGrading (1 1 1)
	hex (20 22 28 30 92 94 100 102) (4 4 1) simpleGrading (1 1 1)
	hex (21 23 22 20 93 95 94 92) (4 4 1) simpleGrading (1 1 1)
	hex (31 29 23 21 103 101 95 93) (4 4 1) simpleGrading (1 1 1)
	hex (30 28 29 31 102 100 101 103) (4 4 1) simpleGrading (1 1 1)
	hex (96 97 99 98 168 169 171 170) (4 4 160) simpleGrading (1 1 1)
	hex (94 96 98 100 166 168 170 172) (4 4 160) simpleGrading (1 1 1)
	hex (95 97 96 94 167 169 168 166) (4 4 160) simpleGrading (1 1 1)
	hex (101 99 97 95 173 171 169 167) (4 4 160) simpleGrading (1 1 1)
	hex (100 98 99 101 172 170 171 173) (4 4 160) simpleGrading (1 1 1)
	hex (34 35 37 36 106 107 109 108) (4 4 1) simpleGrading (1 1 1)
	hex (32 34 36 38 104 106 108 110) (4 4 1) simpleGrading (1 1 1)
	hex (33 35 34 32 105 107 106 104) (4 4 1) simpleGrading (1 1 1)
	hex (39 37 35 33 111 109 107 105) (4 4 1) simpleGrading (1 1 1)
	hex (38 36 37 39 110 108 109 111) (4 4 1) simpleGrading (1 1 1)
	hex (30 32 38 40 102 104 110 112) (4 4 1) simpleGrading (1 1 1)
	hex (31 33 32 30 103 105 104 102) (4 4 1) simpleGrading (1 1 1)
	hex (41 39 33 31 113 111 105 103) (4 4 1) simpleGrading (1 1 1)
	hex (40 38 39 41 112 110 111 113) (4 4 1) simpleGrading (1 1 1)
	hex (106 107 109 108 178 179 181 180) (4 4 160) simpleGrading (1 1 1)
	hex (104 106 108 110 176 178 180 182) (4 4 160) simpleGrading (1 1 1)
	hex (105 107 106 104 177 179 178 176) (4 4 160) simpleGrading (1 1 1)
	hex (111 109 107 105 183 181 179 177) (4 4 160) simpleGrading (1 1 1)
	hex (110 108 109 111 182 180 181 183) (4 4 160) simpleGrading (1 1 1)
	hex (44 45 47 46 116 117 119 118) (4 4 1) simpleGrading (1 1 1)
	hex (42 44 46 48 114 116 118 120) (4 4 1) simpleGrading (1 1 1)
	hex (43 45 44 42 115 117 116 114) (4 4 1) simpleGrading (1 1 1)
	hex (49 47 45 43 121 119 117 115) (4 4 1) simpleGrading (1 1 1)
	hex (48 46 47 49 120 118 119 121) (4 4 1) simpleGrading (1 1 1)
	hex (40 42 48 50 112 114 120 122) (4 4 1) simpleGrading (1 1 1)
	hex (41 43 42 40 113 115 114 112) (4 4 1) simpleGrading (1 1 1)
	hex (51 49 43 41 123 121 115 113) (4 4 1) simpleGrading (1 1 1)
	hex (50 48 49 51 122 120 121 123) (4 4 1) simpleGrading (1 1 1)
	hex (116 117 119 118 188 189 191 190) (4 4 160) simpleGrading (1 1 1)
	hex (114 116 118 120 186 188 190 192) (4 4 160) simpleGrading (1 1 1)
	hex (115 117 116 114 187 189 188 186) (4 4 160) simpleGrading (1 1 1)
	hex (121 119 117 115 193 191 189 187) (4 4 160) simpleGrading (1 1 1)
	hex (120 118 119 121 192 190 191 193) (4 4 160) simpleGrading (1 1 1)
	hex (54 55 57 56 126 127 129 128) (4 4 1) simpleGrading (1 1 1)
	hex (52 54 56 58 124 126 128 130) (4 4 1) simpleGrading (1 1 1)
	hex (53 55 54 52 125 127 126 124) (4 4 1) simpleGrading (1 1 1)
	hex (59 57 55 53 131 129 127 125) (4 4 1) simpleGrading (1 1 1)
	hex (58 56 57 59 130 128 129 131) (4 4 1) simpleGrading (1 1 1)
	hex (50 52 58 60 122 124 130 132) (4 4 1) simpleGrading (1 1 1)
	hex (51 53 52 50 123 125 124 122) (4 4 1) simpleGrading (1 1 1)
	hex (61 59 53 51 133 131 125 123) (4 4 1) simpleGrading (1 1 1)
	hex (60 58 59 61 132 130 131 133) (4 4 1) simpleGrading (1 1 1)
	hex (126 127 129 128 198 199 201 200) (4 4 160) simpleGrading (1 1 1)
	hex (124 126 128 130 196 198 200 202) (4 4 160) simpleGrading (1 1 1)
	hex (125 127 126 124 197 199 198 196) (4 4 160) simpleGrading (1 1 1)
	hex (131 129 127 125 203 201 199 197) (4 4 160) simpleGrading (1 1 1)
	hex (130 128 129 131 202 200 201 203) (4 4 160) simpleGrading (1 1 1)
	hex (64 65 67 66 136 137 139 138) (4 4 1) simpleGrading (1 1 1)
	hex (62 64 66 68 134 136 138 140) (4 4 1) simpleGrading (1 1 1)
	hex (63 65 64 62 135 137 136 134) (4 4 1) simpleGrading (1 1 1)
	hex (69 67 65 63 141 139 137 135) (4 4 1) simpleGrading (1 1 1)
	hex (68 66 67 69 140 138 139 141) (4 4 1) simpleGrading (1 1 1)
	hex (60 62 68 70 132 134 140 142) (4 4 1) simpleGrading (1 1 1)
	hex (61 63 62 60 133 135 134 132) (4 4 1) simpleGrading (1 1 1)
	hex (71 69 63 61 143 141 135 133) (4 4 1) simpleGrading (1 1 1)
	hex (70 68 69 71 142 140 141 143) (4 4 1) simpleGrading (1 1 1)
	hex (136 137 139 138 208 209 211 210) (4 4 160) simpleGrading (1 1 1)
	hex (134 136 138 140 206 208 210 212) (4 4 160) simpleGrading (1 1 1)
	hex (135 137 136 134 207 209 208 206) (4 4 160) simpleGrading (1 1 1)
	hex (141 139 137 135 213 211 209 207) (4 4 160) simpleGrading (1 1 1)
	hex (140 138 139 141 212 210 211 213) (4 4 160) simpleGrading (1 1 1)

);

edges
(
	arc 2 3 (105.0 44.5 0)
	arc 3 9 (105.5 45.0 0)
	arc 9 8 (105.0 45.5 0)
	arc 8 2 (104.5 45.0 0)
	arc 74 75 (105.0 44.5 1)
	arc 75 81 (105.5 45.0 1)
	arc 81 80 (105.0 45.5 1)
	arc 80 74 (104.5 45.0 1)
	arc 12 13 (105.0 50.5 0)
	arc 13 19 (105.5 51.0 0)
	arc 19 18 (105.0 51.5 0)
	arc 18 12 (104.5 51.0 0)
	arc 84 85 (105.0 50.5 1)
	arc 85 91 (105.5 51.0 1)
	arc 91 90 (105.0 51.5 1)
	arc 90 84 (104.5 51.0 1)
	arc 22 23 (105.0 56.5 0)
	arc 23 29 (105.5 57.0 0)
	arc 29 28 (105.0 57.5 0)
	arc 28 22 (104.5 57.0 0)
	arc 94 95 (105.0 56.5 1)
	arc 95 101 (105.5 57.0 1)
	arc 101 100 (105.0 57.5 1)
	arc 100 94 (104.5 57.0 1)
	arc 32 33 (105.0 62.5 0)
	arc 33 39 (105.5 63.0 0)
	arc 39 38 (105.0 63.5 0)
	arc 38 32 (104.5 63.0 0)
	arc 104 105 (105.0 62.5 1)
	arc 105 111 (105.5 63.0 1)
	arc 111 110 (105.0 63.5 1)
	arc 110 104 (104.5 63.0 1)
	arc 42 43 (105.0 68.5 0)
	arc 43 49 (105.5 69.0 0)
	arc 49 48 (105.0 69.5 0)
	arc 48 42 (104.5 69.0 0)
	arc 114 115 (105.0 68.5 1)
	arc 115 121 (105.5 69.0 1)
	arc 121 120 (105.0 69.5 1)
	arc 120 114 (104.5 69.0 1)
	arc 52 53 (105.0 74.5 0)
	arc 53 59 (105.5 75.0 0)
	arc 59 58 (105.0 75.5 0)
	arc 58 52 (104.5 75.0 0)
	arc 124 125 (105.0 74.5 1)
	arc 125 131 (105.5 75.0 1)
	arc 131 130 (105.0 75.5 1)
	arc 130 124 (104.5 75.0 1)
	arc 62 63 (105.0 80.5 0)
	arc 63 69 (105.5 81.0 0)
	arc 69 68 (105.0 81.5 0)
	arc 68 62 (104.5 81.0 0)
	arc 134 135 (105.0 80.5 1)
	arc 135 141 (105.5 81.0 1)
	arc 141 140 (105.0 81.5 1)
	arc 140 134 (104.5 81.0 1)
	arc 146 147 (105.0 44.5 101)
	arc 147 153 (105.5 45.0 101)
	arc 153 152 (105.0 45.5 101)
	arc 152 146 (104.5 45.0 101)
	arc 156 157 (105.0 50.5 101)
	arc 157 163 (105.5 51.0 101)
	arc 163 162 (105.0 51.5 101)
	arc 162 156 (104.5 51.0 101)
	arc 166 167 (105.0 56.5 101)
	arc 167 173 (105.5 57.0 101)
	arc 173 172 (105.0 57.5 101)
	arc 172 166 (104.5 57.0 101)
	arc 176 177 (105.0 62.5 101)
	arc 177 183 (105.5 63.0 101)
	arc 183 182 (105.0 63.5 101)
	arc 182 176 (104.5 63.0 101)
	arc 186 187 (105.0 68.5 101)
	arc 187 193 (105.5 69.0 101)
	arc 193 192 (105.0 69.5 101)
	arc 192 186 (104.5 69.0 101)
	arc 196 197 (105.0 74.5 101)
	arc 197 203 (105.5 75.0 101)
	arc 203 202 (105.0 75.5 101)
	arc 202 196 (104.5 75.0 101)
	arc 206 207 (105.0 80.5 101)
	arc 207 213 (105.5 81.0 101)
	arc 213 212 (105.0 81.5 101)
	arc 212 206 (104.5 81.0 101)
);

patches
(
	patch bristle
	(
		(0 72 82 10)
		(11 83 73 1)
		(72 74 80 82)
		(73 75 74 72)
		(83 81 75 73)
		(82 80 81 83)
		(74 146 152 80)
		(75 147 146 74)
		(81 153 147 75)
		(80 152 153 81)
		(148 149 151 150)
		(146 148 150 152)
		(147 149 148 146)
		(153 151 149 147)
		(152 150 151 153)
		(10 82 92 20)
		(21 93 83 11)
		(82 84 90 92)
		(83 85 84 82)
		(93 91 85 83)
		(92 90 91 93)
		(84 156 162 90)
		(85 157 156 84)
		(91 163 157 85)
		(90 162 163 91)
		(158 159 161 160)
		(156 158 160 162)
		(157 159 158 156)
		(163 161 159 157)
		(162 160 161 163)
		(20 92 102 30)
		(31 103 93 21)
		(92 94 100 102)
		(93 95 94 92)
		(103 101 95 93)
		(102 100 101 103)
		(94 166 172 100)
		(95 167 166 94)
		(101 173 167 95)
		(100 172 173 101)
		(168 169 171 170)
		(166 168 170 172)
		(167 169 168 166)
		(173 171 169 167)
		(172 170 171 173)
		(30 102 112 40)
		(41 113 103 31)
		(102 104 110 112)
		(103 105 104 102)
		(113 111 105 103)
		(112 110 111 113)
		(104 176 182 110)
		(105 177 176 104)
		(111 183 177 105)
		(110 182 183 111)
		(178 179 181 180)
		(176 178 180 182)
		(177 179 178 176)
		(183 181 179 177)
		(182 180 181 183)
		(40 112 122 50)
		(51 123 113 41)
		(112 114 120 122)
		(113 115 114 112)
		(123 121 115 113)
		(122 120 121 123)
		(114 186 192 120)
		(115 187 186 114)
		(121 193 187 115)
		(120 192 193 121)
		(188 189 191 190)
		(186 188 190 192)
		(187 189 188 186)
		(193 191 189 187)
		(192 190 191 193)
		(50 122 132 60)
		(61 133 123 51)
		(122 124 130 132)
		(123 125 124 122)
		(133 131 125 123)
		(132 130 131 133)
		(124 196 202 130)
		(125 197 196 124)
		(131 203 197 125)
		(130 202 203 131)
		(198 199 201 200)
		(196 198 200 202)
		(197 199 198 196)
		(203 201 199 197)
		(202 200 201 203)
		(60 132 142 70)
		(71 143 133 61)
		(132 134 140 142)
		(133 135 134 132)
		(143 141 135 133)
		(142 140 141 143)
		(134 206 212 140)
		(135 207 206 134)
		(141 213 207 135)
		(140 212 213 141)
		(208 209 211 210)
		(206 208 210 212)
		(207 209 208 206)
		(213 211 209 207)
		(212 210 211 213)
		(0 1 73 72)
		(71 70 142 143)
	)

	patch plateFix
	(
		(10 8 2 0)
		(0 2 3 1)
		(1 3 9 11)
		(11 9 8 10)
		(6 7 5 4)
		(8 6 4 2)
		(2 4 5 3)
		(3 5 7 9)
		(9 7 6 8)
		(20 18 12 10)
		(10 12 13 11)
		(11 13 19 21)
		(21 19 18 20)
		(16 17 15 14)
		(18 16 14 12)
		(12 14 15 13)
		(13 15 17 19)
		(19 17 16 18)
		(30 28 22 20)
		(20 22 23 21)
		(21 23 29 31)
		(31 29 28 30)
		(26 27 25 24)
		(28 26 24 22)
		(22 24 25 23)
		(23 25 27 29)
		(29 27 26 28)
		(40 38 32 30)
		(30 32 33 31)
		(31 33 39 41)
		(41 39 38 40)
		(36 37 35 34)
		(38 36 34 32)
		(32 34 35 33)
		(33 35 37 39)
		(39 37 36 38)
		(50 48 42 40)
		(40 42 43 41)
		(41 43 49 51)
		(51 49 48 50)
		(46 47 45 44)
		(48 46 44 42)
		(42 44 45 43)
		(43 45 47 49)
		(49 47 46 48)
		(60 58 52 50)
		(50 52 53 51)
		(51 53 59 61)
		(61 59 58 60)
		(56 57 55 54)
		(58 56 54 52)
		(52 54 55 53)
		(53 55 57 59)
		(59 57 56 58)
		(70 68 62 60)
		(60 62 63 61)
		(61 63 69 71)
		(71 69 68 70)
		(66 67 65 64)
		(68 66 64 62)
		(62 64 65 63)
		(63 65 67 69)
		(69 67 66 68)
	)

);

mergePatchPairs
(
);


// ************************************************************************* //

