/*--------------------------------*- C++ -*----------------------------------*\
| =========                 |                                                 |
| \      /  F ield         | foam-extend: Open Source CFD                    |
|  \    /   O peration     | Version:     4.0                                |
|   \  /    A nd           | Web:         http://www.foam-extend.org         |
|    \/     M anipulation  |                                                 |
\*---------------------------------------------------------------------------*/
FoamFile
{
    version     2.0;
    format      ascii;
    class       dictionary;
    object      blockMeshDict;
}
// * * * * * * * * * * * * * * * * * * * * * * * * * * * * * * * * * * * * * //

convertToMeters 0.001;
vertices
(
	(187 154 0)      //0
	(198 154 0)      //1
	(192.1464 159.1464 0)      //2
	(192.8536 159.1464 0)      //3
	(192.3232 159.3232 0)      //4
	(192.6768 159.3232 0)      //5
	(192.3232 159.6768 0)      //6
	(192.6768 159.6768 0)      //7
	(192.1464 159.8536 0)      //8
	(192.8536 159.8536 0)      //9
	(187 165 0)      //10
	(198 165 0)      //11
	(192.1464 170.1464 0)      //12
	(192.8536 170.1464 0)      //13
	(192.3232 170.3232 0)      //14
	(192.6768 170.3232 0)      //15
	(192.3232 170.6768 0)      //16
	(192.6768 170.6768 0)      //17
	(192.1464 170.8536 0)      //18
	(192.8536 170.8536 0)      //19
	(187 176 0)      //20
	(198 176 0)      //21
	(192.1464 181.1464 0)      //22
	(192.8536 181.1464 0)      //23
	(192.3232 181.3232 0)      //24
	(192.6768 181.3232 0)      //25
	(192.3232 181.6768 0)      //26
	(192.6768 181.6768 0)      //27
	(192.1464 181.8536 0)      //28
	(192.8536 181.8536 0)      //29
	(187 187 0)      //30
	(198 187 0)      //31
	(192.1464 192.1464 0)      //32
	(192.8536 192.1464 0)      //33
	(192.3232 192.3232 0)      //34
	(192.6768 192.3232 0)      //35
	(192.3232 192.6768 0)      //36
	(192.6768 192.6768 0)      //37
	(192.1464 192.8536 0)      //38
	(192.8536 192.8536 0)      //39
	(187 198 0)      //40
	(198 198 0)      //41
	(192.1464 203.1464 0)      //42
	(192.8536 203.1464 0)      //43
	(192.3232 203.3232 0)      //44
	(192.6768 203.3232 0)      //45
	(192.3232 203.6768 0)      //46
	(192.6768 203.6768 0)      //47
	(192.1464 203.8536 0)      //48
	(192.8536 203.8536 0)      //49
	(187 209 0)      //50
	(198 209 0)      //51
	(192.1464 214.1464 0)      //52
	(192.8536 214.1464 0)      //53
	(192.3232 214.3232 0)      //54
	(192.6768 214.3232 0)      //55
	(192.3232 214.6768 0)      //56
	(192.6768 214.6768 0)      //57
	(192.1464 214.8536 0)      //58
	(192.8536 214.8536 0)      //59
	(187 220 0)      //60
	(198 220 0)      //61
	(192.1464 225.1464 0)      //62
	(192.8536 225.1464 0)      //63
	(192.3232 225.3232 0)      //64
	(192.6768 225.3232 0)      //65
	(192.3232 225.6768 0)      //66
	(192.6768 225.6768 0)      //67
	(192.1464 225.8536 0)      //68
	(192.8536 225.8536 0)      //69
	(187 231 0)      //70
	(198 231 0)      //71
	(187 154 1)      //72
	(198 154 1)      //73
	(192.1464 159.1464 1)      //74
	(192.8536 159.1464 1)      //75
	(192.3232 159.3232 1)      //76
	(192.6768 159.3232 1)      //77
	(192.3232 159.6768 1)      //78
	(192.6768 159.6768 1)      //79
	(192.1464 159.8536 1)      //80
	(192.8536 159.8536 1)      //81
	(187 165 1)      //82
	(198 165 1)      //83
	(192.1464 170.1464 1)      //84
	(192.8536 170.1464 1)      //85
	(192.3232 170.3232 1)      //86
	(192.6768 170.3232 1)      //87
	(192.3232 170.6768 1)      //88
	(192.6768 170.6768 1)      //89
	(192.1464 170.8536 1)      //90
	(192.8536 170.8536 1)      //91
	(187 176 1)      //92
	(198 176 1)      //93
	(192.1464 181.1464 1)      //94
	(192.8536 181.1464 1)      //95
	(192.3232 181.3232 1)      //96
	(192.6768 181.3232 1)      //97
	(192.3232 181.6768 1)      //98
	(192.6768 181.6768 1)      //99
	(192.1464 181.8536 1)      //100
	(192.8536 181.8536 1)      //101
	(187 187 1)      //102
	(198 187 1)      //103
	(192.1464 192.1464 1)      //104
	(192.8536 192.1464 1)      //105
	(192.3232 192.3232 1)      //106
	(192.6768 192.3232 1)      //107
	(192.3232 192.6768 1)      //108
	(192.6768 192.6768 1)      //109
	(192.1464 192.8536 1)      //110
	(192.8536 192.8536 1)      //111
	(187 198 1)      //112
	(198 198 1)      //113
	(192.1464 203.1464 1)      //114
	(192.8536 203.1464 1)      //115
	(192.3232 203.3232 1)      //116
	(192.6768 203.3232 1)      //117
	(192.3232 203.6768 1)      //118
	(192.6768 203.6768 1)      //119
	(192.1464 203.8536 1)      //120
	(192.8536 203.8536 1)      //121
	(187 209 1)      //122
	(198 209 1)      //123
	(192.1464 214.1464 1)      //124
	(192.8536 214.1464 1)      //125
	(192.3232 214.3232 1)      //126
	(192.6768 214.3232 1)      //127
	(192.3232 214.6768 1)      //128
	(192.6768 214.6768 1)      //129
	(192.1464 214.8536 1)      //130
	(192.8536 214.8536 1)      //131
	(187 220 1)      //132
	(198 220 1)      //133
	(192.1464 225.1464 1)      //134
	(192.8536 225.1464 1)      //135
	(192.3232 225.3232 1)      //136
	(192.6768 225.3232 1)      //137
	(192.3232 225.6768 1)      //138
	(192.6768 225.6768 1)      //139
	(192.1464 225.8536 1)      //140
	(192.8536 225.8536 1)      //141
	(187 231 1)      //142
	(198 231 1)      //143
	(187 154 101)      //144
	(198 154 101)      //145
	(192.1464 159.1464 101)      //146
	(192.8536 159.1464 101)      //147
	(192.3232 159.3232 101)      //148
	(192.6768 159.3232 101)      //149
	(192.3232 159.6768 101)      //150
	(192.6768 159.6768 101)      //151
	(192.1464 159.8536 101)      //152
	(192.8536 159.8536 101)      //153
	(187 165 101)      //154
	(198 165 101)      //155
	(192.1464 170.1464 101)      //156
	(192.8536 170.1464 101)      //157
	(192.3232 170.3232 101)      //158
	(192.6768 170.3232 101)      //159
	(192.3232 170.6768 101)      //160
	(192.6768 170.6768 101)      //161
	(192.1464 170.8536 101)      //162
	(192.8536 170.8536 101)      //163
	(187 176 101)      //164
	(198 176 101)      //165
	(192.1464 181.1464 101)      //166
	(192.8536 181.1464 101)      //167
	(192.3232 181.3232 101)      //168
	(192.6768 181.3232 101)      //169
	(192.3232 181.6768 101)      //170
	(192.6768 181.6768 101)      //171
	(192.1464 181.8536 101)      //172
	(192.8536 181.8536 101)      //173
	(187 187 101)      //174
	(198 187 101)      //175
	(192.1464 192.1464 101)      //176
	(192.8536 192.1464 101)      //177
	(192.3232 192.3232 101)      //178
	(192.6768 192.3232 101)      //179
	(192.3232 192.6768 101)      //180
	(192.6768 192.6768 101)      //181
	(192.1464 192.8536 101)      //182
	(192.8536 192.8536 101)      //183
	(187 198 101)      //184
	(198 198 101)      //185
	(192.1464 203.1464 101)      //186
	(192.8536 203.1464 101)      //187
	(192.3232 203.3232 101)      //188
	(192.6768 203.3232 101)      //189
	(192.3232 203.6768 101)      //190
	(192.6768 203.6768 101)      //191
	(192.1464 203.8536 101)      //192
	(192.8536 203.8536 101)      //193
	(187 209 101)      //194
	(198 209 101)      //195
	(192.1464 214.1464 101)      //196
	(192.8536 214.1464 101)      //197
	(192.3232 214.3232 101)      //198
	(192.6768 214.3232 101)      //199
	(192.3232 214.6768 101)      //200
	(192.6768 214.6768 101)      //201
	(192.1464 214.8536 101)      //202
	(192.8536 214.8536 101)      //203
	(187 220 101)      //204
	(198 220 101)      //205
	(192.1464 225.1464 101)      //206
	(192.8536 225.1464 101)      //207
	(192.3232 225.3232 101)      //208
	(192.6768 225.3232 101)      //209
	(192.3232 225.6768 101)      //210
	(192.6768 225.6768 101)      //211
	(192.1464 225.8536 101)      //212
	(192.8536 225.8536 101)      //213
	(187 231 101)      //214
	(198 231 101)      //215

);

blocks
(
	hex (4 5 7 6 76 77 79 78) (2 2 2) simpleGrading (1 1 1)
	hex (2 4 6 8 74 76 78 80) (2 2 2) simpleGrading (1 1 1)
	hex (3 5 4 2 75 77 76 74) (2 2 2) simpleGrading (1 1 1)
	hex (9 7 5 3 81 79 77 75) (2 2 2) simpleGrading (1 1 1)
	hex (8 6 7 9 80 78 79 81) (2 2 2) simpleGrading (1 1 1)
	hex (0 2 8 10 72 74 80 82) (5 2 2) simpleGrading (0.2 1 1)
	hex (1 3 2 0 73 75 74 72) (5 2 2) simpleGrading (0.2 1 1)
	hex (11 9 3 1 83 81 75 73) (5 2 2) simpleGrading (0.2 1 1)
	hex (10 8 9 11 82 80 81 83) (5 2 2) simpleGrading (0.2 1 1)
	hex (76 77 79 78 148 149 151 150) (2 2 100) simpleGrading (1 1 1)
	hex (74 76 78 80 146 148 150 152) (2 2 100) simpleGrading (1 1 1)
	hex (75 77 76 74 147 149 148 146) (2 2 100) simpleGrading (1 1 1)
	hex (81 79 77 75 153 151 149 147) (2 2 100) simpleGrading (1 1 1)
	hex (80 78 79 81 152 150 151 153) (2 2 100) simpleGrading (1 1 1)
	hex (14 15 17 16 86 87 89 88) (2 2 2) simpleGrading (1 1 1)
	hex (12 14 16 18 84 86 88 90) (2 2 2) simpleGrading (1 1 1)
	hex (13 15 14 12 85 87 86 84) (2 2 2) simpleGrading (1 1 1)
	hex (19 17 15 13 91 89 87 85) (2 2 2) simpleGrading (1 1 1)
	hex (18 16 17 19 90 88 89 91) (2 2 2) simpleGrading (1 1 1)
	hex (10 12 18 20 82 84 90 92) (5 2 2) simpleGrading (0.2 1 1)
	hex (11 13 12 10 83 85 84 82) (5 2 2) simpleGrading (0.2 1 1)
	hex (21 19 13 11 93 91 85 83) (5 2 2) simpleGrading (0.2 1 1)
	hex (20 18 19 21 92 90 91 93) (5 2 2) simpleGrading (0.2 1 1)
	hex (86 87 89 88 158 159 161 160) (2 2 100) simpleGrading (1 1 1)
	hex (84 86 88 90 156 158 160 162) (2 2 100) simpleGrading (1 1 1)
	hex (85 87 86 84 157 159 158 156) (2 2 100) simpleGrading (1 1 1)
	hex (91 89 87 85 163 161 159 157) (2 2 100) simpleGrading (1 1 1)
	hex (90 88 89 91 162 160 161 163) (2 2 100) simpleGrading (1 1 1)
	hex (24 25 27 26 96 97 99 98) (2 2 2) simpleGrading (1 1 1)
	hex (22 24 26 28 94 96 98 100) (2 2 2) simpleGrading (1 1 1)
	hex (23 25 24 22 95 97 96 94) (2 2 2) simpleGrading (1 1 1)
	hex (29 27 25 23 101 99 97 95) (2 2 2) simpleGrading (1 1 1)
	hex (28 26 27 29 100 98 99 101) (2 2 2) simpleGrading (1 1 1)
	hex (20 22 28 30 92 94 100 102) (5 2 2) simpleGrading (0.2 1 1)
	hex (21 23 22 20 93 95 94 92) (5 2 2) simpleGrading (0.2 1 1)
	hex (31 29 23 21 103 101 95 93) (5 2 2) simpleGrading (0.2 1 1)
	hex (30 28 29 31 102 100 101 103) (5 2 2) simpleGrading (0.2 1 1)
	hex (96 97 99 98 168 169 171 170) (2 2 100) simpleGrading (1 1 1)
	hex (94 96 98 100 166 168 170 172) (2 2 100) simpleGrading (1 1 1)
	hex (95 97 96 94 167 169 168 166) (2 2 100) simpleGrading (1 1 1)
	hex (101 99 97 95 173 171 169 167) (2 2 100) simpleGrading (1 1 1)
	hex (100 98 99 101 172 170 171 173) (2 2 100) simpleGrading (1 1 1)
	hex (34 35 37 36 106 107 109 108) (2 2 2) simpleGrading (1 1 1)
	hex (32 34 36 38 104 106 108 110) (2 2 2) simpleGrading (1 1 1)
	hex (33 35 34 32 105 107 106 104) (2 2 2) simpleGrading (1 1 1)
	hex (39 37 35 33 111 109 107 105) (2 2 2) simpleGrading (1 1 1)
	hex (38 36 37 39 110 108 109 111) (2 2 2) simpleGrading (1 1 1)
	hex (30 32 38 40 102 104 110 112) (5 2 2) simpleGrading (0.2 1 1)
	hex (31 33 32 30 103 105 104 102) (5 2 2) simpleGrading (0.2 1 1)
	hex (41 39 33 31 113 111 105 103) (5 2 2) simpleGrading (0.2 1 1)
	hex (40 38 39 41 112 110 111 113) (5 2 2) simpleGrading (0.2 1 1)
	hex (106 107 109 108 178 179 181 180) (2 2 100) simpleGrading (1 1 1)
	hex (104 106 108 110 176 178 180 182) (2 2 100) simpleGrading (1 1 1)
	hex (105 107 106 104 177 179 178 176) (2 2 100) simpleGrading (1 1 1)
	hex (111 109 107 105 183 181 179 177) (2 2 100) simpleGrading (1 1 1)
	hex (110 108 109 111 182 180 181 183) (2 2 100) simpleGrading (1 1 1)
	hex (44 45 47 46 116 117 119 118) (2 2 2) simpleGrading (1 1 1)
	hex (42 44 46 48 114 116 118 120) (2 2 2) simpleGrading (1 1 1)
	hex (43 45 44 42 115 117 116 114) (2 2 2) simpleGrading (1 1 1)
	hex (49 47 45 43 121 119 117 115) (2 2 2) simpleGrading (1 1 1)
	hex (48 46 47 49 120 118 119 121) (2 2 2) simpleGrading (1 1 1)
	hex (40 42 48 50 112 114 120 122) (5 2 2) simpleGrading (0.2 1 1)
	hex (41 43 42 40 113 115 114 112) (5 2 2) simpleGrading (0.2 1 1)
	hex (51 49 43 41 123 121 115 113) (5 2 2) simpleGrading (0.2 1 1)
	hex (50 48 49 51 122 120 121 123) (5 2 2) simpleGrading (0.2 1 1)
	hex (116 117 119 118 188 189 191 190) (2 2 100) simpleGrading (1 1 1)
	hex (114 116 118 120 186 188 190 192) (2 2 100) simpleGrading (1 1 1)
	hex (115 117 116 114 187 189 188 186) (2 2 100) simpleGrading (1 1 1)
	hex (121 119 117 115 193 191 189 187) (2 2 100) simpleGrading (1 1 1)
	hex (120 118 119 121 192 190 191 193) (2 2 100) simpleGrading (1 1 1)
	hex (54 55 57 56 126 127 129 128) (2 2 2) simpleGrading (1 1 1)
	hex (52 54 56 58 124 126 128 130) (2 2 2) simpleGrading (1 1 1)
	hex (53 55 54 52 125 127 126 124) (2 2 2) simpleGrading (1 1 1)
	hex (59 57 55 53 131 129 127 125) (2 2 2) simpleGrading (1 1 1)
	hex (58 56 57 59 130 128 129 131) (2 2 2) simpleGrading (1 1 1)
	hex (50 52 58 60 122 124 130 132) (5 2 2) simpleGrading (0.2 1 1)
	hex (51 53 52 50 123 125 124 122) (5 2 2) simpleGrading (0.2 1 1)
	hex (61 59 53 51 133 131 125 123) (5 2 2) simpleGrading (0.2 1 1)
	hex (60 58 59 61 132 130 131 133) (5 2 2) simpleGrading (0.2 1 1)
	hex (126 127 129 128 198 199 201 200) (2 2 100) simpleGrading (1 1 1)
	hex (124 126 128 130 196 198 200 202) (2 2 100) simpleGrading (1 1 1)
	hex (125 127 126 124 197 199 198 196) (2 2 100) simpleGrading (1 1 1)
	hex (131 129 127 125 203 201 199 197) (2 2 100) simpleGrading (1 1 1)
	hex (130 128 129 131 202 200 201 203) (2 2 100) simpleGrading (1 1 1)
	hex (64 65 67 66 136 137 139 138) (2 2 2) simpleGrading (1 1 1)
	hex (62 64 66 68 134 136 138 140) (2 2 2) simpleGrading (1 1 1)
	hex (63 65 64 62 135 137 136 134) (2 2 2) simpleGrading (1 1 1)
	hex (69 67 65 63 141 139 137 135) (2 2 2) simpleGrading (1 1 1)
	hex (68 66 67 69 140 138 139 141) (2 2 2) simpleGrading (1 1 1)
	hex (60 62 68 70 132 134 140 142) (5 2 2) simpleGrading (0.2 1 1)
	hex (61 63 62 60 133 135 134 132) (5 2 2) simpleGrading (0.2 1 1)
	hex (71 69 63 61 143 141 135 133) (5 2 2) simpleGrading (0.2 1 1)
	hex (70 68 69 71 142 140 141 143) (5 2 2) simpleGrading (0.2 1 1)
	hex (136 137 139 138 208 209 211 210) (2 2 100) simpleGrading (1 1 1)
	hex (134 136 138 140 206 208 210 212) (2 2 100) simpleGrading (1 1 1)
	hex (135 137 136 134 207 209 208 206) (2 2 100) simpleGrading (1 1 1)
	hex (141 139 137 135 213 211 209 207) (2 2 100) simpleGrading (1 1 1)
	hex (140 138 139 141 212 210 211 213) (2 2 100) simpleGrading (1 1 1)

);

edges
(
	arc 2 3 (192.5 159.0 0)
	arc 3 9 (193.0 159.5 0)
	arc 9 8 (192.5 160.0 0)
	arc 8 2 (192.0 159.5 0)
	arc 74 75 (192.5 159.0 1)
	arc 75 81 (193.0 159.5 1)
	arc 81 80 (192.5 160.0 1)
	arc 80 74 (192.0 159.5 1)
	arc 12 13 (192.5 170.0 0)
	arc 13 19 (193.0 170.5 0)
	arc 19 18 (192.5 171.0 0)
	arc 18 12 (192.0 170.5 0)
	arc 84 85 (192.5 170.0 1)
	arc 85 91 (193.0 170.5 1)
	arc 91 90 (192.5 171.0 1)
	arc 90 84 (192.0 170.5 1)
	arc 22 23 (192.5 181.0 0)
	arc 23 29 (193.0 181.5 0)
	arc 29 28 (192.5 182.0 0)
	arc 28 22 (192.0 181.5 0)
	arc 94 95 (192.5 181.0 1)
	arc 95 101 (193.0 181.5 1)
	arc 101 100 (192.5 182.0 1)
	arc 100 94 (192.0 181.5 1)
	arc 32 33 (192.5 192.0 0)
	arc 33 39 (193.0 192.5 0)
	arc 39 38 (192.5 193.0 0)
	arc 38 32 (192.0 192.5 0)
	arc 104 105 (192.5 192.0 1)
	arc 105 111 (193.0 192.5 1)
	arc 111 110 (192.5 193.0 1)
	arc 110 104 (192.0 192.5 1)
	arc 42 43 (192.5 203.0 0)
	arc 43 49 (193.0 203.5 0)
	arc 49 48 (192.5 204.0 0)
	arc 48 42 (192.0 203.5 0)
	arc 114 115 (192.5 203.0 1)
	arc 115 121 (193.0 203.5 1)
	arc 121 120 (192.5 204.0 1)
	arc 120 114 (192.0 203.5 1)
	arc 52 53 (192.5 214.0 0)
	arc 53 59 (193.0 214.5 0)
	arc 59 58 (192.5 215.0 0)
	arc 58 52 (192.0 214.5 0)
	arc 124 125 (192.5 214.0 1)
	arc 125 131 (193.0 214.5 1)
	arc 131 130 (192.5 215.0 1)
	arc 130 124 (192.0 214.5 1)
	arc 62 63 (192.5 225.0 0)
	arc 63 69 (193.0 225.5 0)
	arc 69 68 (192.5 226.0 0)
	arc 68 62 (192.0 225.5 0)
	arc 134 135 (192.5 225.0 1)
	arc 135 141 (193.0 225.5 1)
	arc 141 140 (192.5 226.0 1)
	arc 140 134 (192.0 225.5 1)
	arc 146 147 (192.5 159.0 101)
	arc 147 153 (193.0 159.5 101)
	arc 153 152 (192.5 160.0 101)
	arc 152 146 (192.0 159.5 101)
	arc 156 157 (192.5 170.0 101)
	arc 157 163 (193.0 170.5 101)
	arc 163 162 (192.5 171.0 101)
	arc 162 156 (192.0 170.5 101)
	arc 166 167 (192.5 181.0 101)
	arc 167 173 (193.0 181.5 101)
	arc 173 172 (192.5 182.0 101)
	arc 172 166 (192.0 181.5 101)
	arc 176 177 (192.5 192.0 101)
	arc 177 183 (193.0 192.5 101)
	arc 183 182 (192.5 193.0 101)
	arc 182 176 (192.0 192.5 101)
	arc 186 187 (192.5 203.0 101)
	arc 187 193 (193.0 203.5 101)
	arc 193 192 (192.5 204.0 101)
	arc 192 186 (192.0 203.5 101)
	arc 196 197 (192.5 214.0 101)
	arc 197 203 (193.0 214.5 101)
	arc 203 202 (192.5 215.0 101)
	arc 202 196 (192.0 214.5 101)
	arc 206 207 (192.5 225.0 101)
	arc 207 213 (193.0 225.5 101)
	arc 213 212 (192.5 226.0 101)
	arc 212 206 (192.0 225.5 101)
);

patches
(
	patch bristle
	(
		(0 72 82 10)
		(11 83 73 1)
		(72 74 80 82)
		(73 75 74 72)
		(83 81 75 73)
		(82 80 81 83)
		(74 146 152 80)
		(75 147 146 74)
		(81 153 147 75)
		(80 152 153 81)
		(148 149 151 150)
		(146 148 150 152)
		(147 149 148 146)
		(153 151 149 147)
		(152 150 151 153)
		(10 82 92 20)
		(21 93 83 11)
		(82 84 90 92)
		(83 85 84 82)
		(93 91 85 83)
		(92 90 91 93)
		(84 156 162 90)
		(85 157 156 84)
		(91 163 157 85)
		(90 162 163 91)
		(158 159 161 160)
		(156 158 160 162)
		(157 159 158 156)
		(163 161 159 157)
		(162 160 161 163)
		(20 92 102 30)
		(31 103 93 21)
		(92 94 100 102)
		(93 95 94 92)
		(103 101 95 93)
		(102 100 101 103)
		(94 166 172 100)
		(95 167 166 94)
		(101 173 167 95)
		(100 172 173 101)
		(168 169 171 170)
		(166 168 170 172)
		(167 169 168 166)
		(173 171 169 167)
		(172 170 171 173)
		(30 102 112 40)
		(41 113 103 31)
		(102 104 110 112)
		(103 105 104 102)
		(113 111 105 103)
		(112 110 111 113)
		(104 176 182 110)
		(105 177 176 104)
		(111 183 177 105)
		(110 182 183 111)
		(178 179 181 180)
		(176 178 180 182)
		(177 179 178 176)
		(183 181 179 177)
		(182 180 181 183)
		(40 112 122 50)
		(51 123 113 41)
		(112 114 120 122)
		(113 115 114 112)
		(123 121 115 113)
		(122 120 121 123)
		(114 186 192 120)
		(115 187 186 114)
		(121 193 187 115)
		(120 192 193 121)
		(188 189 191 190)
		(186 188 190 192)
		(187 189 188 186)
		(193 191 189 187)
		(192 190 191 193)
		(50 122 132 60)
		(61 133 123 51)
		(122 124 130 132)
		(123 125 124 122)
		(133 131 125 123)
		(132 130 131 133)
		(124 196 202 130)
		(125 197 196 124)
		(131 203 197 125)
		(130 202 203 131)
		(198 199 201 200)
		(196 198 200 202)
		(197 199 198 196)
		(203 201 199 197)
		(202 200 201 203)
		(60 132 142 70)
		(71 143 133 61)
		(132 134 140 142)
		(133 135 134 132)
		(143 141 135 133)
		(142 140 141 143)
		(134 206 212 140)
		(135 207 206 134)
		(141 213 207 135)
		(140 212 213 141)
		(208 209 211 210)
		(206 208 210 212)
		(207 209 208 206)
		(213 211 209 207)
		(212 210 211 213)
		(0 1 73 72)
		(71 70 142 143)
	)

	patch plateFix
	(
		(6 7 5 4)
		(8 6 4 2)
		(2 4 5 3)
		(3 5 7 9)
		(9 7 6 8)
		(10 8 2 0)
		(0 2 3 1)
		(1 3 9 11)
		(11 9 8 10)
		(16 17 15 14)
		(18 16 14 12)
		(12 14 15 13)
		(13 15 17 19)
		(19 17 16 18)
		(20 18 12 10)
		(10 12 13 11)
		(11 13 19 21)
		(21 19 18 20)
		(26 27 25 24)
		(28 26 24 22)
		(22 24 25 23)
		(23 25 27 29)
		(29 27 26 28)
		(30 28 22 20)
		(20 22 23 21)
		(21 23 29 31)
		(31 29 28 30)
		(36 37 35 34)
		(38 36 34 32)
		(32 34 35 33)
		(33 35 37 39)
		(39 37 36 38)
		(40 38 32 30)
		(30 32 33 31)
		(31 33 39 41)
		(41 39 38 40)
		(46 47 45 44)
		(48 46 44 42)
		(42 44 45 43)
		(43 45 47 49)
		(49 47 46 48)
		(50 48 42 40)
		(40 42 43 41)
		(41 43 49 51)
		(51 49 48 50)
		(56 57 55 54)
		(58 56 54 52)
		(52 54 55 53)
		(53 55 57 59)
		(59 57 56 58)
		(60 58 52 50)
		(50 52 53 51)
		(51 53 59 61)
		(61 59 58 60)
		(66 67 65 64)
		(68 66 64 62)
		(62 64 65 63)
		(63 65 67 69)
		(69 67 66 68)
		(70 68 62 60)
		(60 62 63 61)
		(61 63 69 71)
		(71 69 68 70)
	)

);

mergePatchPairs
(
);


// ************************************************************************* //

