/*--------------------------------*- C++ -*----------------------------------*\
| =========                 |                                                 |
| \      /  F ield         | foam-extend: Open Source CFD                    |
|  \    /   O peration     | Version:     4.0                                |
|   \  /    A nd           | Web:         http://www.foam-extend.org         |
|    \/     M anipulation  |                                                 |
\*---------------------------------------------------------------------------*/
FoamFile
{
    version     2.0;
    format      ascii;
    class       dictionary;
    object      blockMeshDict;
}
// * * * * * * * * * * * * * * * * * * * * * * * * * * * * * * * * * * * * * //

convertToMeters 0.001;
vertices
(
	(811.6117 1836.6117 0)      //0
	(988.3883 1836.6117 0)      //1
	(988.3883 2013.3883 0)      //2
	(811.6117 2013.3883 0)      //3
	(811.6117 736.6117 0)      //4
	(988.3883 736.6117 0)      //5
	(988.3883 913.3883 0)      //6
	(811.6117 913.3883 0)      //7
	(811.6117 2936.6117 0)      //8
	(988.3883 2936.6117 0)      //9
	(988.3883 3113.3883 0)      //10
	(811.6117 3113.3883 0)      //11
	(811.6117 1286.6117 0)      //12
	(988.3883 1286.6117 0)      //13
	(988.3883 1463.3883 0)      //14
	(811.6117 1463.3883 0)      //15
	(811.6117 2386.6117 0)      //16
	(988.3883 2386.6117 0)      //17
	(988.3883 2563.3883 0)      //18
	(811.6117 2563.3883 0)      //19
	(600 550 0)      //20
	(1200 550 0)      //21
	(600 3300 0)      //22
	(1200 3300 0)      //23
	(723.2233 1748.2233 0)      //24
	(1076.7767 1748.2233 0)      //25
	(723.2233 2101.7767 0)      //26
	(1076.7767 2101.7767 0)      //27
	(723.2233 648.2233 0)      //28
	(1076.7767 648.2233 0)      //29
	(723.2233 1001.7767 0)      //30
	(1076.7767 1001.7767 0)      //31
	(600 1100 0)      //32
	(1200 1100 0)      //33
	(723.2233 2848.2233 0)      //34
	(1076.7767 2848.2233 0)      //35
	(723.2233 3201.7767 0)      //36
	(1076.7767 3201.7767 0)      //37
	(600 2750 0)      //38
	(1200 2750 0)      //39
	(723.2233 1198.2233 0)      //40
	(1076.7767 1198.2233 0)      //41
	(723.2233 1551.7767 0)      //42
	(1076.7767 1551.7767 0)      //43
	(600 1650 0)      //44
	(1200 1650 0)      //45
	(723.2233 2298.2233 0)      //46
	(1076.7767 2298.2233 0)      //47
	(723.2233 2651.7767 0)      //48
	(1076.7767 2651.7767 0)      //49
	(600 2200 0)      //50
	(1200 2200 0)      //51

	(811.6117 1836.6117 150)      //52
	(988.3883 1836.6117 150)      //53
	(988.3883 2013.3883 150)      //54
	(811.6117 2013.3883 150)      //55
	(811.6117 736.6117 150)      //56
	(988.3883 736.6117 150)      //57
	(988.3883 913.3883 150)      //58
	(811.6117 913.3883 150)      //59
	(811.6117 2936.6117 150)      //60
	(988.3883 2936.6117 150)      //61
	(988.3883 3113.3883 150)      //62
	(811.6117 3113.3883 150)      //63
	(811.6117 1286.6117 150)      //64
	(988.3883 1286.6117 150)      //65
	(988.3883 1463.3883 150)      //66
	(811.6117 1463.3883 150)      //67
	(811.6117 2386.6117 150)      //68
	(988.3883 2386.6117 150)      //69
	(988.3883 2563.3883 150)      //70
	(811.6117 2563.3883 150)      //71
	(600 550 150)      //72
	(1200 550 150)      //73
	(600 3300 150)      //74
	(1200 3300 150)      //75
	(723.2233 1748.2233 150)      //76
	(1076.7767 1748.2233 150)      //77
	(723.2233 2101.7767 150)      //78
	(1076.7767 2101.7767 150)      //79
	(723.2233 648.2233 150)      //80
	(1076.7767 648.2233 150)      //81
	(723.2233 1001.7767 150)      //82
	(1076.7767 1001.7767 150)      //83
	(600 1100 150)      //84
	(1200 1100 150)      //85
	(723.2233 2848.2233 150)      //86
	(1076.7767 2848.2233 150)      //87
	(723.2233 3201.7767 150)      //88
	(1076.7767 3201.7767 150)      //89
	(600 2750 150)      //90
	(1200 2750 150)      //91
	(723.2233 1198.2233 150)      //92
	(1076.7767 1198.2233 150)      //93
	(723.2233 1551.7767 150)      //94
	(1076.7767 1551.7767 150)      //95
	(600 1650 150)      //96
	(1200 1650 150)      //97
	(723.2233 2298.2233 150)      //98
	(1076.7767 2298.2233 150)      //99
	(723.2233 2651.7767 150)      //100
	(1076.7767 2651.7767 150)      //101
	(600 2200 150)      //102
	(1200 2200 150)      //103

	(811.6117 1836.6117 1500)      //104
	(988.3883 1836.6117 1500)      //105
	(988.3883 2013.3883 1500)      //106
	(811.6117 2013.3883 1500)      //107
	(811.6117 736.6117 1500)      //108
	(988.3883 736.6117 1500)      //109
	(988.3883 913.3883 1500)      //110
	(811.6117 913.3883 1500)      //111
	(811.6117 2936.6117 1500)      //112
	(988.3883 2936.6117 1500)      //113
	(988.3883 3113.3883 1500)      //114
	(811.6117 3113.3883 1500)      //115
	(811.6117 1286.6117 1500)      //116
	(988.3883 1286.6117 1500)      //117
	(988.3883 1463.3883 1500)      //118
	(811.6117 1463.3883 1500)      //119
	(811.6117 2386.6117 1500)      //120
	(988.3883 2386.6117 1500)      //121
	(988.3883 2563.3883 1500)      //122
	(811.6117 2563.3883 1500)      //123
	(723.2233 1748.2233 1500)      //124
	(1076.7767 1748.2233 1500)      //125
	(723.2233 2101.7767 1500)      //126
	(1076.7767 2101.7767 1500)      //127
	(723.2233 648.2233 1500)      //128
	(1076.7767 648.2233 1500)      //129
	(723.2233 1001.7767 1500)      //130
	(1076.7767 1001.7767 1500)      //131
	(723.2233 2848.2233 1500)      //132
	(1076.7767 2848.2233 1500)      //133
	(723.2233 3201.7767 1500)      //134
	(1076.7767 3201.7767 1500)      //135
	(723.2233 1198.2233 1500)      //136
	(1076.7767 1198.2233 1500)      //137
	(723.2233 1551.7767 1500)      //138
	(1076.7767 1551.7767 1500)      //139
	(723.2233 2298.2233 1500)      //140
	(1076.7767 2298.2233 1500)      //141
	(723.2233 2651.7767 1500)      //142
	(1076.7767 2651.7767 1500)      //143

);

mergePatchPairs
(
);


// ************************************************************************* //

