/*--------------------------------*- C++ -*----------------------------------*\
| =========                 |                                                 |
| \      /  F ield         | foam-extend: Open Source CFD                    |
|  \    /   O peration     | Version:     4.0                                |
|   \  /    A nd           | Web:         http://www.foam-extend.org         |
|    \/     M anipulation  |                                                 |
\*---------------------------------------------------------------------------*/
FoamFile
{
    version     2.0;
    format      ascii;
    class       dictionary;
    object      blockMeshDict;
}
// * * * * * * * * * * * * * * * * * * * * * * * * * * * * * * * * * * * * * //

convertToMeters 0.001;
vertices
(
	(102 6 0)      //0
	(108 6 0)      //1
	(104.6464 8.6464 0)      //2
	(105.3536 8.6464 0)      //3
	(104.8232 8.8232 0)      //4
	(105.1768 8.8232 0)      //5
	(104.8232 9.1768 0)      //6
	(105.1768 9.1768 0)      //7
	(104.6464 9.3536 0)      //8
	(105.3536 9.3536 0)      //9
	(102 12 0)      //10
	(108 12 0)      //11
	(102 6 1)      //12
	(108 6 1)      //13
	(104.6464 8.6464 1)      //14
	(105.3536 8.6464 1)      //15
	(104.8232 8.8232 1)      //16
	(105.1768 8.8232 1)      //17
	(104.8232 9.1768 1)      //18
	(105.1768 9.1768 1)      //19
	(104.6464 9.3536 1)      //20
	(105.3536 9.3536 1)      //21
	(102 12 1)      //22
	(108 12 1)      //23
	(102 6 101)      //24
	(108 6 101)      //25
	(104.6464 8.6464 101)      //26
	(105.3536 8.6464 101)      //27
	(104.8232 8.8232 101)      //28
	(105.1768 8.8232 101)      //29
	(104.8232 9.1768 101)      //30
	(105.1768 9.1768 101)      //31
	(104.6464 9.3536 101)      //32
	(105.3536 9.3536 101)      //33
	(102 12 101)      //34
	(108 12 101)      //35

);

blocks
(
	hex (4 5 7 6 16 17 19 18) (2 2 2) simpleGrading (1 1 1)
	hex (2 4 6 8 14 16 18 20) (2 2 2) simpleGrading (1 1 1)
	hex (3 5 4 2 15 17 16 14) (2 2 2) simpleGrading (1 1 1)
	hex (9 7 5 3 21 19 17 15) (2 2 2) simpleGrading (1 1 1)
	hex (8 6 7 9 20 18 19 21) (2 2 2) simpleGrading (1 1 1)
	hex (0 2 8 10 12 14 20 22) (8 2 2) simpleGrading (0.1 1 1)
	hex (1 3 2 0 13 15 14 12) (8 2 2) simpleGrading (0.1 1 1)
	hex (11 9 3 1 23 21 15 13) (8 2 2) simpleGrading (0.1 1 1)
	hex (10 8 9 11 22 20 21 23) (8 2 2) simpleGrading (0.1 1 1)
	hex (16 17 19 18 28 29 31 30) (2 2 20) simpleGrading (1 1 1)
	hex (14 16 18 20 26 28 30 32) (2 2 20) simpleGrading (1 1 1)
	hex (15 17 16 14 27 29 28 26) (2 2 20) simpleGrading (1 1 1)
	hex (21 19 17 15 33 31 29 27) (2 2 20) simpleGrading (1 1 1)
	hex (20 18 19 21 32 30 31 33) (2 2 20) simpleGrading (1 1 1)

);

edges
(
	arc 2 3 (105.0 8.5 0)
	arc 3 9 (105.5 9.0 0)
	arc 9 8 (105.0 9.5 0)
	arc 8 2 (104.5 9.0 0)
	arc 14 15 (105.0 8.5 1)
	arc 15 21 (105.5 9.0 1)
	arc 21 20 (105.0 9.5 1)
	arc 20 14 (104.5 9.0 1)
	arc 26 27 (105.0 8.5 101)
	arc 27 33 (105.5 9.0 101)
	arc 33 32 (105.0 9.5 101)
	arc 32 26 (104.5 9.0 101)
);

patches
(
	patch bristle
	(
		(0 12 22 10)
		(11 23 13 1)
		(12 14 20 22)
		(13 15 14 12)
		(23 21 15 13)
		(22 20 21 23)
		(14 26 32 20)
		(15 27 26 14)
		(21 33 27 15)
		(20 32 33 21)
		(28 29 31 30)
		(26 28 30 32)
		(27 29 28 26)
		(33 31 29 27)
		(32 30 31 33)
		(0 1 13 12)
		(11 10 22 23)
		(6 7 5 4)
		(0 2 3 1)
		(1 3 9 11)
		(11 9 8 10)
		(8 6 4 2)
		(2 4 5 3)
		(3 5 7 9)
		(9 7 6 8)
	)

	patch plateFix
	(
		(10 8 2 0)
	)

);

mergePatchPairs
(
);


// ************************************************************************* //

