/*--------------------------------*- C++ -*----------------------------------*\
| =========                 |                                                 |
| \      /  F ield         | foam-extend: Open Source CFD                    |
|  \    /   O peration     | Version:     4.0                                |
|   \  /    A nd           | Web:         http://www.foam-extend.org         |
|    \/     M anipulation  |                                                 |
\*---------------------------------------------------------------------------*/
FoamFile
{
    version     2.0;
    format      ascii;
    class       dictionary;
    object      blockMeshDict;
}
// * * * * * * * * * * * * * * * * * * * * * * * * * * * * * * * * * * * * * //

convertToMeters 0.001;
vertices
(
	(600 550 0)      //0
	(1200 550 0)      //1
	(723.2233 648.2233 0)      //2
	(1076.7767 648.2233 0)      //3
	(811.6117 736.6117 0)      //4
	(988.3883 736.6117 0)      //5
	(811.6117 913.3883 0)      //6
	(988.3883 913.3883 0)      //7
	(723.2233 1001.7767 0)      //8
	(1076.7767 1001.7767 0)      //9
	(600 1100 0)      //10
	(1200 1100 0)      //11
	(723.2233 1198.2233 0)      //12
	(1076.7767 1198.2233 0)      //13
	(811.6117 1286.6117 0)      //14
	(988.3883 1286.6117 0)      //15
	(811.6117 1463.3883 0)      //16
	(988.3883 1463.3883 0)      //17
	(723.2233 1551.7767 0)      //18
	(1076.7767 1551.7767 0)      //19
	(600 1650 0)      //20
	(1200 1650 0)      //21
	(723.2233 1748.2233 0)      //22
	(1076.7767 1748.2233 0)      //23
	(811.6117 1836.6117 0)      //24
	(988.3883 1836.6117 0)      //25
	(811.6117 2013.3883 0)      //26
	(988.3883 2013.3883 0)      //27
	(723.2233 2101.7767 0)      //28
	(1076.7767 2101.7767 0)      //29
	(600 2200 0)      //30
	(1200 2200 0)      //31
	(723.2233 2298.2233 0)      //32
	(1076.7767 2298.2233 0)      //33
	(811.6117 2386.6117 0)      //34
	(988.3883 2386.6117 0)      //35
	(811.6117 2563.3883 0)      //36
	(988.3883 2563.3883 0)      //37
	(723.2233 2651.7767 0)      //38
	(1076.7767 2651.7767 0)      //39
	(600 2750 0)      //40
	(1200 2750 0)      //41
	(723.2233 2848.2233 0)      //42
	(1076.7767 2848.2233 0)      //43
	(811.6117 2936.6117 0)      //44
	(988.3883 2936.6117 0)      //45
	(811.6117 3113.3883 0)      //46
	(988.3883 3113.3883 0)      //47
	(723.2233 3201.7767 0)      //48
	(1076.7767 3201.7767 0)      //49
	(600 3300 0)      //50
	(1200 3300 0)      //51
	(600 550 150)      //52
	(1200 550 150)      //53
	(723.2233 648.2233 150)      //54
	(1076.7767 648.2233 150)      //55
	(811.6117 736.6117 150)      //56
	(988.3883 736.6117 150)      //57
	(811.6117 913.3883 150)      //58
	(988.3883 913.3883 150)      //59
	(723.2233 1001.7767 150)      //60
	(1076.7767 1001.7767 150)      //61
	(600 1100 150)      //62
	(1200 1100 150)      //63
	(723.2233 1198.2233 150)      //64
	(1076.7767 1198.2233 150)      //65
	(811.6117 1286.6117 150)      //66
	(988.3883 1286.6117 150)      //67
	(811.6117 1463.3883 150)      //68
	(988.3883 1463.3883 150)      //69
	(723.2233 1551.7767 150)      //70
	(1076.7767 1551.7767 150)      //71
	(600 1650 150)      //72
	(1200 1650 150)      //73
	(723.2233 1748.2233 150)      //74
	(1076.7767 1748.2233 150)      //75
	(811.6117 1836.6117 150)      //76
	(988.3883 1836.6117 150)      //77
	(811.6117 2013.3883 150)      //78
	(988.3883 2013.3883 150)      //79
	(723.2233 2101.7767 150)      //80
	(1076.7767 2101.7767 150)      //81
	(600 2200 150)      //82
	(1200 2200 150)      //83
	(723.2233 2298.2233 150)      //84
	(1076.7767 2298.2233 150)      //85
	(811.6117 2386.6117 150)      //86
	(988.3883 2386.6117 150)      //87
	(811.6117 2563.3883 150)      //88
	(988.3883 2563.3883 150)      //89
	(723.2233 2651.7767 150)      //90
	(1076.7767 2651.7767 150)      //91
	(600 2750 150)      //92
	(1200 2750 150)      //93
	(723.2233 2848.2233 150)      //94
	(1076.7767 2848.2233 150)      //95
	(811.6117 2936.6117 150)      //96
	(988.3883 2936.6117 150)      //97
	(811.6117 3113.3883 150)      //98
	(988.3883 3113.3883 150)      //99
	(723.2233 3201.7767 150)      //100
	(1076.7767 3201.7767 150)      //101
	(600 3300 150)      //102
	(1200 3300 150)      //103
	(723.2233 648.2233 1650)      //104
	(1076.7767 648.2233 1650)      //105
	(811.6117 736.6117 1650)      //106
	(988.3883 736.6117 1650)      //107
	(811.6117 913.3883 1650)      //108
	(988.3883 913.3883 1650)      //109
	(723.2233 1001.7767 1650)      //110
	(1076.7767 1001.7767 1650)      //111
	(723.2233 1198.2233 1650)      //112
	(1076.7767 1198.2233 1650)      //113
	(811.6117 1286.6117 1650)      //114
	(988.3883 1286.6117 1650)      //115
	(811.6117 1463.3883 1650)      //116
	(988.3883 1463.3883 1650)      //117
	(723.2233 1551.7767 1650)      //118
	(1076.7767 1551.7767 1650)      //119
	(723.2233 1748.2233 1650)      //120
	(1076.7767 1748.2233 1650)      //121
	(811.6117 1836.6117 1650)      //122
	(988.3883 1836.6117 1650)      //123
	(811.6117 2013.3883 1650)      //124
	(988.3883 2013.3883 1650)      //125
	(723.2233 2101.7767 1650)      //126
	(1076.7767 2101.7767 1650)      //127
	(723.2233 2298.2233 1650)      //128
	(1076.7767 2298.2233 1650)      //129
	(811.6117 2386.6117 1650)      //130
	(988.3883 2386.6117 1650)      //131
	(811.6117 2563.3883 1650)      //132
	(988.3883 2563.3883 1650)      //133
	(723.2233 2651.7767 1650)      //134
	(1076.7767 2651.7767 1650)      //135
	(723.2233 2848.2233 1650)      //136
	(1076.7767 2848.2233 1650)      //137
	(811.6117 2936.6117 1650)      //138
	(988.3883 2936.6117 1650)      //139
	(811.6117 3113.3883 1650)      //140
	(988.3883 3113.3883 1650)      //141
	(723.2233 3201.7767 1650)      //142
	(1076.7767 3201.7767 1650)      //143

);

blocks
(
	hex (4 5 6 7 56 57 58 59) (5 5 1) simpleGrading (1 1 1)
	hex (2 4 7 4 54 56 59 56) (5 5 1) simpleGrading (1 1 1)
	hex (3 5 4 2 55 57 56 54) (5 5 1) simpleGrading (1 1 1)
	hex (5 6 5 3 57 58 57 55) (5 5 1) simpleGrading (1 1 1)
	hex (4 7 6 5 56 59 58 57) (5 5 1) simpleGrading (1 1 1)
	hex (0 2 4 10 52 54 56 62) (5 5 1) simpleGrading (1 1 1)
	hex (1 3 2 0 53 55 54 52) (5 5 1) simpleGrading (1 1 1)
	hex (11 5 3 1 63 57 55 53) (5 5 1) simpleGrading (1 1 1)
	hex (10 4 5 11 62 56 57 63) (5 5 1) simpleGrading (1 1 1)
	hex (56 57 58 59 106 107 108 109) (5 5 10) simpleGrading (1 1 1)
	hex (54 56 59 56 104 106 109 106) (5 5 10) simpleGrading (1 1 1)
	hex (55 57 56 54 105 107 106 104) (5 5 10) simpleGrading (1 1 1)
	hex (57 58 57 55 107 108 107 105) (5 5 10) simpleGrading (1 1 1)
	hex (56 59 58 57 106 109 108 107) (5 5 10) simpleGrading (1 1 1)
	hex (14 15 16 17 66 67 68 69) (5 5 1) simpleGrading (1 1 1)
	hex (12 14 17 14 64 66 69 66) (5 5 1) simpleGrading (1 1 1)
	hex (13 15 14 12 65 67 66 64) (5 5 1) simpleGrading (1 1 1)
	hex (15 16 15 13 67 68 67 65) (5 5 1) simpleGrading (1 1 1)
	hex (14 17 16 15 66 69 68 67) (5 5 1) simpleGrading (1 1 1)
	hex (10 12 14 20 62 64 66 72) (5 5 1) simpleGrading (1 1 1)
	hex (11 13 12 10 63 65 64 62) (5 5 1) simpleGrading (1 1 1)
	hex (21 15 13 11 73 67 65 63) (5 5 1) simpleGrading (1 1 1)
	hex (20 14 15 21 72 66 67 73) (5 5 1) simpleGrading (1 1 1)
	hex (66 67 68 69 114 115 116 117) (5 5 10) simpleGrading (1 1 1)
	hex (64 66 69 66 112 114 117 114) (5 5 10) simpleGrading (1 1 1)
	hex (65 67 66 64 113 115 114 112) (5 5 10) simpleGrading (1 1 1)
	hex (67 68 67 65 115 116 115 113) (5 5 10) simpleGrading (1 1 1)
	hex (66 69 68 67 114 117 116 115) (5 5 10) simpleGrading (1 1 1)
	hex (24 25 26 27 76 77 78 79) (5 5 1) simpleGrading (1 1 1)
	hex (22 24 27 24 74 76 79 76) (5 5 1) simpleGrading (1 1 1)
	hex (23 25 24 22 75 77 76 74) (5 5 1) simpleGrading (1 1 1)
	hex (25 26 25 23 77 78 77 75) (5 5 1) simpleGrading (1 1 1)
	hex (24 27 26 25 76 79 78 77) (5 5 1) simpleGrading (1 1 1)
	hex (20 22 24 30 72 74 76 82) (5 5 1) simpleGrading (1 1 1)
	hex (21 23 22 20 73 75 74 72) (5 5 1) simpleGrading (1 1 1)
	hex (31 25 23 21 83 77 75 73) (5 5 1) simpleGrading (1 1 1)
	hex (30 24 25 31 82 76 77 83) (5 5 1) simpleGrading (1 1 1)
	hex (76 77 78 79 122 123 124 125) (5 5 10) simpleGrading (1 1 1)
	hex (74 76 79 76 120 122 125 122) (5 5 10) simpleGrading (1 1 1)
	hex (75 77 76 74 121 123 122 120) (5 5 10) simpleGrading (1 1 1)
	hex (77 78 77 75 123 124 123 121) (5 5 10) simpleGrading (1 1 1)
	hex (76 79 78 77 122 125 124 123) (5 5 10) simpleGrading (1 1 1)
	hex (34 35 36 37 86 87 88 89) (5 5 1) simpleGrading (1 1 1)
	hex (32 34 37 34 84 86 89 86) (5 5 1) simpleGrading (1 1 1)
	hex (33 35 34 32 85 87 86 84) (5 5 1) simpleGrading (1 1 1)
	hex (35 36 35 33 87 88 87 85) (5 5 1) simpleGrading (1 1 1)
	hex (34 37 36 35 86 89 88 87) (5 5 1) simpleGrading (1 1 1)
	hex (30 32 34 40 82 84 86 92) (5 5 1) simpleGrading (1 1 1)
	hex (31 33 32 30 83 85 84 82) (5 5 1) simpleGrading (1 1 1)
	hex (41 35 33 31 93 87 85 83) (5 5 1) simpleGrading (1 1 1)
	hex (40 34 35 41 92 86 87 93) (5 5 1) simpleGrading (1 1 1)
	hex (86 87 88 89 130 131 132 133) (5 5 10) simpleGrading (1 1 1)
	hex (84 86 89 86 128 130 133 130) (5 5 10) simpleGrading (1 1 1)
	hex (85 87 86 84 129 131 130 128) (5 5 10) simpleGrading (1 1 1)
	hex (87 88 87 85 131 132 131 129) (5 5 10) simpleGrading (1 1 1)
	hex (86 89 88 87 130 133 132 131) (5 5 10) simpleGrading (1 1 1)
	hex (44 45 46 47 96 97 98 99) (5 5 1) simpleGrading (1 1 1)
	hex (42 44 47 44 94 96 99 96) (5 5 1) simpleGrading (1 1 1)
	hex (43 45 44 42 95 97 96 94) (5 5 1) simpleGrading (1 1 1)
	hex (45 46 45 43 97 98 97 95) (5 5 1) simpleGrading (1 1 1)
	hex (44 47 46 45 96 99 98 97) (5 5 1) simpleGrading (1 1 1)
	hex (40 42 44 50 92 94 96 102) (5 5 1) simpleGrading (1 1 1)
	hex (41 43 42 40 93 95 94 92) (5 5 1) simpleGrading (1 1 1)
	hex (51 45 43 41 103 97 95 93) (5 5 1) simpleGrading (1 1 1)
	hex (50 44 45 51 102 96 97 103) (5 5 1) simpleGrading (1 1 1)
	hex (96 97 98 99 138 139 140 141) (5 5 10) simpleGrading (1 1 1)
	hex (94 96 99 96 136 138 141 138) (5 5 10) simpleGrading (1 1 1)
	hex (95 97 96 94 137 139 138 136) (5 5 10) simpleGrading (1 1 1)
	hex (97 98 97 95 139 140 139 137) (5 5 10) simpleGrading (1 1 1)
	hex (96 99 98 97 138 141 140 139) (5 5 10) simpleGrading (1 1 1)

);

edges
(
	arc 2 3 (900.0 1675.0 0)
	arc 3 5 (1150.0 1925.0 0)
	arc 5 4 (900.0 2175.0 0)
	arc 4 2 (650.0 1925.0 0)
	arc 54 55 (900.0 1675.0 150)
	arc 55 57 (1150.0 1925.0 150)
	arc 57 56 (900.0 2175.0 150)
	arc 56 54 (650.0 1925.0 150)
	arc 12 13 (900.0 1675.0 0)
	arc 13 15 (1150.0 1925.0 0)
	arc 15 14 (900.0 2175.0 0)
	arc 14 12 (650.0 1925.0 0)
	arc 64 65 (900.0 1675.0 150)
	arc 65 67 (1150.0 1925.0 150)
	arc 67 66 (900.0 2175.0 150)
	arc 66 64 (650.0 1925.0 150)
	arc 22 23 (900.0 1675.0 0)
	arc 23 25 (1150.0 1925.0 0)
	arc 25 24 (900.0 2175.0 0)
	arc 24 22 (650.0 1925.0 0)
	arc 74 75 (900.0 1675.0 150)
	arc 75 77 (1150.0 1925.0 150)
	arc 77 76 (900.0 2175.0 150)
	arc 76 74 (650.0 1925.0 150)
	arc 32 33 (900.0 1675.0 0)
	arc 33 35 (1150.0 1925.0 0)
	arc 35 34 (900.0 2175.0 0)
	arc 34 32 (650.0 1925.0 0)
	arc 84 85 (900.0 1675.0 150)
	arc 85 87 (1150.0 1925.0 150)
	arc 87 86 (900.0 2175.0 150)
	arc 86 84 (650.0 1925.0 150)
	arc 42 43 (900.0 1675.0 0)
	arc 43 45 (1150.0 1925.0 0)
	arc 45 44 (900.0 2175.0 0)
	arc 44 42 (650.0 1925.0 0)
	arc 94 95 (900.0 1675.0 150)
	arc 95 97 (1150.0 1925.0 150)
	arc 97 96 (900.0 2175.0 150)
	arc 96 94 (650.0 1925.0 150)
	arc 104 105 (900.0 1675.0 1650)
	arc 105 107 (1150.0 1925.0 1650)
	arc 107 106 (900.0 2175.0 1650)
	arc 106 104 (650.0 1925.0 1650)
	arc 112 113 (900.0 1675.0 1650)
	arc 113 115 (1150.0 1925.0 1650)
	arc 115 114 (900.0 2175.0 1650)
	arc 114 112 (650.0 1925.0 1650)
	arc 120 121 (900.0 1675.0 1650)
	arc 121 123 (1150.0 1925.0 1650)
	arc 123 122 (900.0 2175.0 1650)
	arc 122 120 (650.0 1925.0 1650)
	arc 128 129 (900.0 1675.0 1650)
	arc 129 131 (1150.0 1925.0 1650)
	arc 131 130 (900.0 2175.0 1650)
	arc 130 128 (650.0 1925.0 1650)
	arc 136 137 (900.0 1675.0 1650)
	arc 137 139 (1150.0 1925.0 1650)
	arc 139 138 (900.0 2175.0 1650)
	arc 138 136 (650.0 1925.0 1650)
);

patches
(
	patch bristle
	(
		(0 52 62 10)
		(11 63 53 1)
		(52 54 56 62)
		(53 55 54 52)
		(63 57 55 53)
		(62 56 57 63)
		(54 104 106 56)
		(55 105 104 54)
		(57 107 105 55)
		(56 106 107 57)
		(106 107 108 109)
		(104 106 109 106)
		(105 107 106 104)
		(107 108 107 105)
		(106 109 108 107)
		(10 62 72 20)
		(21 73 63 11)
		(62 64 66 72)
		(63 65 64 62)
		(73 67 65 63)
		(72 66 67 73)
		(64 112 114 66)
		(65 113 112 64)
		(67 115 113 65)
		(66 114 115 67)
		(114 115 116 117)
		(112 114 117 114)
		(113 115 114 112)
		(115 116 115 113)
		(114 117 116 115)
		(20 72 82 30)
		(31 83 73 21)
		(72 74 76 82)
		(73 75 74 72)
		(83 77 75 73)
		(82 76 77 83)
		(74 120 122 76)
		(75 121 120 74)
		(77 123 121 75)
		(76 122 123 77)
		(122 123 124 125)
		(120 122 125 122)
		(121 123 122 120)
		(123 124 123 121)
		(122 125 124 123)
		(30 82 92 40)
		(41 93 83 31)
		(82 84 86 92)
		(83 85 84 82)
		(93 87 85 83)
		(92 86 87 93)
		(84 128 130 86)
		(85 129 128 84)
		(87 131 129 85)
		(86 130 131 87)
		(130 131 132 133)
		(128 130 133 130)
		(129 131 130 128)
		(131 132 131 129)
		(130 133 132 131)
		(40 92 102 50)
		(51 103 93 41)
		(92 94 96 102)
		(93 95 94 92)
		(103 97 95 93)
		(102 96 97 103)
		(94 136 138 96)
		(95 137 136 94)
		(97 139 137 95)
		(96 138 139 97)
		(138 139 140 141)
		(136 138 141 138)
		(137 139 138 136)
		(139 140 139 137)
		(138 141 140 139)
		(0 1 53 52)
		(51 50 102 103)
	)

	patch plateFix
	(
		(10 4 2 0)
		(0 2 3 1)
		(1 3 5 11)
		(11 5 4 10)
		(7 6 5 4)
		(4 7 4 2)
		(2 4 5 3)
		(3 5 6 5)
		(5 6 7 4)
		(20 14 12 10)
		(10 12 13 11)
		(11 13 15 21)
		(21 15 14 20)
		(17 16 15 14)
		(14 17 14 12)
		(12 14 15 13)
		(13 15 16 15)
		(15 16 17 14)
		(30 24 22 20)
		(20 22 23 21)
		(21 23 25 31)
		(31 25 24 30)
		(27 26 25 24)
		(24 27 24 22)
		(22 24 25 23)
		(23 25 26 25)
		(25 26 27 24)
		(40 34 32 30)
		(30 32 33 31)
		(31 33 35 41)
		(41 35 34 40)
		(37 36 35 34)
		(34 37 34 32)
		(32 34 35 33)
		(33 35 36 35)
		(35 36 37 34)
		(50 44 42 40)
		(40 42 43 41)
		(41 43 45 51)
		(51 45 44 50)
		(47 46 45 44)
		(44 47 44 42)
		(42 44 45 43)
		(43 45 46 45)
		(45 46 47 44)
	)

);

mergePatchPairs
(
);


// ************************************************************************* //

