/*--------------------------------*- C++ -*----------------------------------*\
| =========                 |                                                 |
| \\      /  F ield         | foam-extend: Open Source CFD                    |
|  \\    /   O peration     | Version:     4.0                                |
|   \\  /    A nd           | Web:         http://www.foam-extend.org         |
|    \\/     M anipulation  |                                                 |
\*---------------------------------------------------------------------------*/
FoamFile
{
    version     2.0;
    format      ascii;
    class       dictionary;
    object      blockMeshDict;
}
// * * * * * * * * * * * * * * * * * * * * * * * * * * * * * * * * * * * * * //

convertToMeters 0.000001;

vertices
(
    (9292.8932 9292.8932 0)      //8
    (10707.1068 9292.8932 0)      //9
	(9292.8932 10707.1068 0)      //10
	(10707.1068 10707.1068 0)      //11

    (9292.8932 9292.8932 15000)      //28
	(10707.1068 9292.8932 15000)      //29
	(9292.8932 10707.1068 15000)      //30
	(10707.1068 10707.1068 15000)      //31

    (10000 10000 0)       //8
    (10000 10000 15000)   //9
);

blocks
(
    hex (0 1 8 8 4 5 9 9) (20 20 40) simpleGrading (1 1 1)
    hex (1 3 8 8 5 7 9 9) (20 20 40) simpleGrading (1 1 1)
    hex (3 2 8 8 7 6 9 9) (20 20 40) simpleGrading (1 1 1)
    hex (2 0 8 8 6 4 9 9) (20 20 40) simpleGrading (1 1 1)
);

edges
(
    arc 0 1 (10000.0 9000.0 0)
    arc 1 3 (11000.0 10000.0 0)
    arc 3 2 (10000.0 11000.0 0)
    arc 2 0 (9000.0 10000.0 0)

    arc 4 5 (10000.0 9000.0 15000)
    arc 5 7 (11000.0 10000.0 15000)
    arc 7 6 (10000.0 11000.0 15000)
    arc 6 4 (9000.0 10000.0 15000)
);

patches
(
    patch plateFix
    (
        (0 1 8 8)
        (1 3 8 8)
        (3 2 8 8)
        (2 0 8 8)
    )

    patch cylinder
    (
        (6 2 0 4)
        (4 0 1 5)
        (5 1 3 7)
        (6 2 3 7)
        (4 5 9 9)
        (5 7 9 9)
        (7 6 9 9)
        (6 4 9 9)
    )
);

mergePatchPairs
(
);


// ************************************************************************* //
