/*--------------------------------*- C++ -*----------------------------------*\
| =========                 |                                                 |
| \      /  F ield         | foam-extend: Open Source CFD                    |
|  \    /   O peration     | Version:     4.0                                |
|   \  /    A nd           | Web:         http://www.foam-extend.org         |
|    \/     M anipulation  |                                                 |
\*---------------------------------------------------------------------------*/
FoamFile
{
    version     2.0;
    format      ascii;
    class       dictionary;
    object      blockMeshDict;
}
// * * * * * * * * * * * * * * * * * * * * * * * * * * * * * * * * * * * * * //

convertToMeters 0.001;
vertices
(
	(39.5 54 0)      //0
	(45.5 54 0)      //1
	(42.1464 56.6464 0)      //2
	(42.8536 56.6464 0)      //3
	(42.3232 56.8232 0)      //4
	(42.6768 56.8232 0)      //5
	(42.3232 57.1768 0)      //6
	(42.6768 57.1768 0)      //7
	(42.1464 57.3536 0)      //8
	(42.8536 57.3536 0)      //9
	(39.5 60 0)      //10
	(45.5 60 0)      //11
	(42.1464 62.6464 0)      //12
	(42.8536 62.6464 0)      //13
	(42.3232 62.8232 0)      //14
	(42.6768 62.8232 0)      //15
	(42.3232 63.1768 0)      //16
	(42.6768 63.1768 0)      //17
	(42.1464 63.3536 0)      //18
	(42.8536 63.3536 0)      //19
	(39.5 66 0)      //20
	(45.5 66 0)      //21
	(42.1464 68.6464 0)      //22
	(42.8536 68.6464 0)      //23
	(42.3232 68.8232 0)      //24
	(42.6768 68.8232 0)      //25
	(42.3232 69.1768 0)      //26
	(42.6768 69.1768 0)      //27
	(42.1464 69.3536 0)      //28
	(42.8536 69.3536 0)      //29
	(39.5 72 0)      //30
	(45.5 72 0)      //31
	(42.1464 74.6464 0)      //32
	(42.8536 74.6464 0)      //33
	(42.3232 74.8232 0)      //34
	(42.6768 74.8232 0)      //35
	(42.3232 75.1768 0)      //36
	(42.6768 75.1768 0)      //37
	(42.1464 75.3536 0)      //38
	(42.8536 75.3536 0)      //39
	(39.5 78 0)      //40
	(45.5 78 0)      //41
	(42.1464 80.6464 0)      //42
	(42.8536 80.6464 0)      //43
	(42.3232 80.8232 0)      //44
	(42.6768 80.8232 0)      //45
	(42.3232 81.1768 0)      //46
	(42.6768 81.1768 0)      //47
	(42.1464 81.3536 0)      //48
	(42.8536 81.3536 0)      //49
	(39.5 84 0)      //50
	(45.5 84 0)      //51
	(42.1464 86.6464 0)      //52
	(42.8536 86.6464 0)      //53
	(42.3232 86.8232 0)      //54
	(42.6768 86.8232 0)      //55
	(42.3232 87.1768 0)      //56
	(42.6768 87.1768 0)      //57
	(42.1464 87.3536 0)      //58
	(42.8536 87.3536 0)      //59
	(39.5 90 0)      //60
	(45.5 90 0)      //61
	(42.1464 92.6464 0)      //62
	(42.8536 92.6464 0)      //63
	(42.3232 92.8232 0)      //64
	(42.6768 92.8232 0)      //65
	(42.3232 93.1768 0)      //66
	(42.6768 93.1768 0)      //67
	(42.1464 93.3536 0)      //68
	(42.8536 93.3536 0)      //69
	(39.5 96 0)      //70
	(45.5 96 0)      //71
	(39.5 54 8)      //72
	(45.5 54 8)      //73
	(42.1464 56.6464 8)      //74
	(42.8536 56.6464 8)      //75
	(42.3232 56.8232 8)      //76
	(42.6768 56.8232 8)      //77
	(42.3232 57.1768 8)      //78
	(42.6768 57.1768 8)      //79
	(42.1464 57.3536 8)      //80
	(42.8536 57.3536 8)      //81
	(39.5 60 8)      //82
	(45.5 60 8)      //83
	(42.1464 62.6464 8)      //84
	(42.8536 62.6464 8)      //85
	(42.3232 62.8232 8)      //86
	(42.6768 62.8232 8)      //87
	(42.3232 63.1768 8)      //88
	(42.6768 63.1768 8)      //89
	(42.1464 63.3536 8)      //90
	(42.8536 63.3536 8)      //91
	(39.5 66 8)      //92
	(45.5 66 8)      //93
	(42.1464 68.6464 8)      //94
	(42.8536 68.6464 8)      //95
	(42.3232 68.8232 8)      //96
	(42.6768 68.8232 8)      //97
	(42.3232 69.1768 8)      //98
	(42.6768 69.1768 8)      //99
	(42.1464 69.3536 8)      //100
	(42.8536 69.3536 8)      //101
	(39.5 72 8)      //102
	(45.5 72 8)      //103
	(42.1464 74.6464 8)      //104
	(42.8536 74.6464 8)      //105
	(42.3232 74.8232 8)      //106
	(42.6768 74.8232 8)      //107
	(42.3232 75.1768 8)      //108
	(42.6768 75.1768 8)      //109
	(42.1464 75.3536 8)      //110
	(42.8536 75.3536 8)      //111
	(39.5 78 8)      //112
	(45.5 78 8)      //113
	(42.1464 80.6464 8)      //114
	(42.8536 80.6464 8)      //115
	(42.3232 80.8232 8)      //116
	(42.6768 80.8232 8)      //117
	(42.3232 81.1768 8)      //118
	(42.6768 81.1768 8)      //119
	(42.1464 81.3536 8)      //120
	(42.8536 81.3536 8)      //121
	(39.5 84 8)      //122
	(45.5 84 8)      //123
	(42.1464 86.6464 8)      //124
	(42.8536 86.6464 8)      //125
	(42.3232 86.8232 8)      //126
	(42.6768 86.8232 8)      //127
	(42.3232 87.1768 8)      //128
	(42.6768 87.1768 8)      //129
	(42.1464 87.3536 8)      //130
	(42.8536 87.3536 8)      //131
	(39.5 90 8)      //132
	(45.5 90 8)      //133
	(42.1464 92.6464 8)      //134
	(42.8536 92.6464 8)      //135
	(42.3232 92.8232 8)      //136
	(42.6768 92.8232 8)      //137
	(42.3232 93.1768 8)      //138
	(42.6768 93.1768 8)      //139
	(42.1464 93.3536 8)      //140
	(42.8536 93.3536 8)      //141
	(39.5 96 8)      //142
	(45.5 96 8)      //143
	(39.5 54 88)      //144
	(45.5 54 88)      //145
	(42.1464 56.6464 88)      //146
	(42.8536 56.6464 88)      //147
	(42.3232 56.8232 88)      //148
	(42.6768 56.8232 88)      //149
	(42.3232 57.1768 88)      //150
	(42.6768 57.1768 88)      //151
	(42.1464 57.3536 88)      //152
	(42.8536 57.3536 88)      //153
	(39.5 60 88)      //154
	(45.5 60 88)      //155
	(42.1464 62.6464 88)      //156
	(42.8536 62.6464 88)      //157
	(42.3232 62.8232 88)      //158
	(42.6768 62.8232 88)      //159
	(42.3232 63.1768 88)      //160
	(42.6768 63.1768 88)      //161
	(42.1464 63.3536 88)      //162
	(42.8536 63.3536 88)      //163
	(39.5 66 88)      //164
	(45.5 66 88)      //165
	(42.1464 68.6464 88)      //166
	(42.8536 68.6464 88)      //167
	(42.3232 68.8232 88)      //168
	(42.6768 68.8232 88)      //169
	(42.3232 69.1768 88)      //170
	(42.6768 69.1768 88)      //171
	(42.1464 69.3536 88)      //172
	(42.8536 69.3536 88)      //173
	(39.5 72 88)      //174
	(45.5 72 88)      //175
	(42.1464 74.6464 88)      //176
	(42.8536 74.6464 88)      //177
	(42.3232 74.8232 88)      //178
	(42.6768 74.8232 88)      //179
	(42.3232 75.1768 88)      //180
	(42.6768 75.1768 88)      //181
	(42.1464 75.3536 88)      //182
	(42.8536 75.3536 88)      //183
	(39.5 78 88)      //184
	(45.5 78 88)      //185
	(42.1464 80.6464 88)      //186
	(42.8536 80.6464 88)      //187
	(42.3232 80.8232 88)      //188
	(42.6768 80.8232 88)      //189
	(42.3232 81.1768 88)      //190
	(42.6768 81.1768 88)      //191
	(42.1464 81.3536 88)      //192
	(42.8536 81.3536 88)      //193
	(39.5 84 88)      //194
	(45.5 84 88)      //195
	(42.1464 86.6464 88)      //196
	(42.8536 86.6464 88)      //197
	(42.3232 86.8232 88)      //198
	(42.6768 86.8232 88)      //199
	(42.3232 87.1768 88)      //200
	(42.6768 87.1768 88)      //201
	(42.1464 87.3536 88)      //202
	(42.8536 87.3536 88)      //203
	(39.5 90 88)      //204
	(45.5 90 88)      //205
	(42.1464 92.6464 88)      //206
	(42.8536 92.6464 88)      //207
	(42.3232 92.8232 88)      //208
	(42.6768 92.8232 88)      //209
	(42.3232 93.1768 88)      //210
	(42.6768 93.1768 88)      //211
	(42.1464 93.3536 88)      //212
	(42.8536 93.3536 88)      //213
	(39.5 96 88)      //214
	(45.5 96 88)      //215

);

blocks
(
	hex (4 5 7 6 76 77 79 78) (2 2 10) simpleGrading (1 1 1)
	hex (2 4 6 8 74 76 78 80) (2 2 10) simpleGrading (1 1 1)
	hex (3 5 4 2 75 77 76 74) (2 2 10) simpleGrading (1 1 1)
	hex (9 7 5 3 81 79 77 75) (2 2 10) simpleGrading (1 1 1)
	hex (8 6 7 9 80 78 79 81) (2 2 10) simpleGrading (1 1 1)
	hex (0 2 8 10 72 74 80 82) (4 2 10) simpleGrading (0.2 1 1)
	hex (1 3 2 0 73 75 74 72) (4 2 10) simpleGrading (0.2 1 1)
	hex (11 9 3 1 83 81 75 73) (4 2 10) simpleGrading (0.2 1 1)
	hex (10 8 9 11 82 80 81 83) (4 2 10) simpleGrading (0.2 1 1)
	hex (76 77 79 78 148 149 151 150) (2 2 100) simpleGrading (1 1 1)
	hex (74 76 78 80 146 148 150 152) (2 2 100) simpleGrading (1 1 1)
	hex (75 77 76 74 147 149 148 146) (2 2 100) simpleGrading (1 1 1)
	hex (81 79 77 75 153 151 149 147) (2 2 100) simpleGrading (1 1 1)
	hex (80 78 79 81 152 150 151 153) (2 2 100) simpleGrading (1 1 1)
	hex (14 15 17 16 86 87 89 88) (2 2 10) simpleGrading (1 1 1)
	hex (12 14 16 18 84 86 88 90) (2 2 10) simpleGrading (1 1 1)
	hex (13 15 14 12 85 87 86 84) (2 2 10) simpleGrading (1 1 1)
	hex (19 17 15 13 91 89 87 85) (2 2 10) simpleGrading (1 1 1)
	hex (18 16 17 19 90 88 89 91) (2 2 10) simpleGrading (1 1 1)
	hex (10 12 18 20 82 84 90 92) (4 2 10) simpleGrading (0.2 1 1)
	hex (11 13 12 10 83 85 84 82) (4 2 10) simpleGrading (0.2 1 1)
	hex (21 19 13 11 93 91 85 83) (4 2 10) simpleGrading (0.2 1 1)
	hex (20 18 19 21 92 90 91 93) (4 2 10) simpleGrading (0.2 1 1)
	hex (86 87 89 88 158 159 161 160) (2 2 100) simpleGrading (1 1 1)
	hex (84 86 88 90 156 158 160 162) (2 2 100) simpleGrading (1 1 1)
	hex (85 87 86 84 157 159 158 156) (2 2 100) simpleGrading (1 1 1)
	hex (91 89 87 85 163 161 159 157) (2 2 100) simpleGrading (1 1 1)
	hex (90 88 89 91 162 160 161 163) (2 2 100) simpleGrading (1 1 1)
	hex (24 25 27 26 96 97 99 98) (2 2 10) simpleGrading (1 1 1)
	hex (22 24 26 28 94 96 98 100) (2 2 10) simpleGrading (1 1 1)
	hex (23 25 24 22 95 97 96 94) (2 2 10) simpleGrading (1 1 1)
	hex (29 27 25 23 101 99 97 95) (2 2 10) simpleGrading (1 1 1)
	hex (28 26 27 29 100 98 99 101) (2 2 10) simpleGrading (1 1 1)
	hex (20 22 28 30 92 94 100 102) (4 2 10) simpleGrading (0.2 1 1)
	hex (21 23 22 20 93 95 94 92) (4 2 10) simpleGrading (0.2 1 1)
	hex (31 29 23 21 103 101 95 93) (4 2 10) simpleGrading (0.2 1 1)
	hex (30 28 29 31 102 100 101 103) (4 2 10) simpleGrading (0.2 1 1)
	hex (96 97 99 98 168 169 171 170) (2 2 100) simpleGrading (1 1 1)
	hex (94 96 98 100 166 168 170 172) (2 2 100) simpleGrading (1 1 1)
	hex (95 97 96 94 167 169 168 166) (2 2 100) simpleGrading (1 1 1)
	hex (101 99 97 95 173 171 169 167) (2 2 100) simpleGrading (1 1 1)
	hex (100 98 99 101 172 170 171 173) (2 2 100) simpleGrading (1 1 1)
	hex (34 35 37 36 106 107 109 108) (2 2 10) simpleGrading (1 1 1)
	hex (32 34 36 38 104 106 108 110) (2 2 10) simpleGrading (1 1 1)
	hex (33 35 34 32 105 107 106 104) (2 2 10) simpleGrading (1 1 1)
	hex (39 37 35 33 111 109 107 105) (2 2 10) simpleGrading (1 1 1)
	hex (38 36 37 39 110 108 109 111) (2 2 10) simpleGrading (1 1 1)
	hex (30 32 38 40 102 104 110 112) (4 2 10) simpleGrading (0.2 1 1)
	hex (31 33 32 30 103 105 104 102) (4 2 10) simpleGrading (0.2 1 1)
	hex (41 39 33 31 113 111 105 103) (4 2 10) simpleGrading (0.2 1 1)
	hex (40 38 39 41 112 110 111 113) (4 2 10) simpleGrading (0.2 1 1)
	hex (106 107 109 108 178 179 181 180) (2 2 100) simpleGrading (1 1 1)
	hex (104 106 108 110 176 178 180 182) (2 2 100) simpleGrading (1 1 1)
	hex (105 107 106 104 177 179 178 176) (2 2 100) simpleGrading (1 1 1)
	hex (111 109 107 105 183 181 179 177) (2 2 100) simpleGrading (1 1 1)
	hex (110 108 109 111 182 180 181 183) (2 2 100) simpleGrading (1 1 1)
	hex (44 45 47 46 116 117 119 118) (2 2 10) simpleGrading (1 1 1)
	hex (42 44 46 48 114 116 118 120) (2 2 10) simpleGrading (1 1 1)
	hex (43 45 44 42 115 117 116 114) (2 2 10) simpleGrading (1 1 1)
	hex (49 47 45 43 121 119 117 115) (2 2 10) simpleGrading (1 1 1)
	hex (48 46 47 49 120 118 119 121) (2 2 10) simpleGrading (1 1 1)
	hex (40 42 48 50 112 114 120 122) (4 2 10) simpleGrading (0.2 1 1)
	hex (41 43 42 40 113 115 114 112) (4 2 10) simpleGrading (0.2 1 1)
	hex (51 49 43 41 123 121 115 113) (4 2 10) simpleGrading (0.2 1 1)
	hex (50 48 49 51 122 120 121 123) (4 2 10) simpleGrading (0.2 1 1)
	hex (116 117 119 118 188 189 191 190) (2 2 100) simpleGrading (1 1 1)
	hex (114 116 118 120 186 188 190 192) (2 2 100) simpleGrading (1 1 1)
	hex (115 117 116 114 187 189 188 186) (2 2 100) simpleGrading (1 1 1)
	hex (121 119 117 115 193 191 189 187) (2 2 100) simpleGrading (1 1 1)
	hex (120 118 119 121 192 190 191 193) (2 2 100) simpleGrading (1 1 1)
	hex (54 55 57 56 126 127 129 128) (2 2 10) simpleGrading (1 1 1)
	hex (52 54 56 58 124 126 128 130) (2 2 10) simpleGrading (1 1 1)
	hex (53 55 54 52 125 127 126 124) (2 2 10) simpleGrading (1 1 1)
	hex (59 57 55 53 131 129 127 125) (2 2 10) simpleGrading (1 1 1)
	hex (58 56 57 59 130 128 129 131) (2 2 10) simpleGrading (1 1 1)
	hex (50 52 58 60 122 124 130 132) (4 2 10) simpleGrading (0.2 1 1)
	hex (51 53 52 50 123 125 124 122) (4 2 10) simpleGrading (0.2 1 1)
	hex (61 59 53 51 133 131 125 123) (4 2 10) simpleGrading (0.2 1 1)
	hex (60 58 59 61 132 130 131 133) (4 2 10) simpleGrading (0.2 1 1)
	hex (126 127 129 128 198 199 201 200) (2 2 100) simpleGrading (1 1 1)
	hex (124 126 128 130 196 198 200 202) (2 2 100) simpleGrading (1 1 1)
	hex (125 127 126 124 197 199 198 196) (2 2 100) simpleGrading (1 1 1)
	hex (131 129 127 125 203 201 199 197) (2 2 100) simpleGrading (1 1 1)
	hex (130 128 129 131 202 200 201 203) (2 2 100) simpleGrading (1 1 1)
	hex (64 65 67 66 136 137 139 138) (2 2 10) simpleGrading (1 1 1)
	hex (62 64 66 68 134 136 138 140) (2 2 10) simpleGrading (1 1 1)
	hex (63 65 64 62 135 137 136 134) (2 2 10) simpleGrading (1 1 1)
	hex (69 67 65 63 141 139 137 135) (2 2 10) simpleGrading (1 1 1)
	hex (68 66 67 69 140 138 139 141) (2 2 10) simpleGrading (1 1 1)
	hex (60 62 68 70 132 134 140 142) (4 2 10) simpleGrading (0.2 1 1)
	hex (61 63 62 60 133 135 134 132) (4 2 10) simpleGrading (0.2 1 1)
	hex (71 69 63 61 143 141 135 133) (4 2 10) simpleGrading (0.2 1 1)
	hex (70 68 69 71 142 140 141 143) (4 2 10) simpleGrading (0.2 1 1)
	hex (136 137 139 138 208 209 211 210) (2 2 100) simpleGrading (1 1 1)
	hex (134 136 138 140 206 208 210 212) (2 2 100) simpleGrading (1 1 1)
	hex (135 137 136 134 207 209 208 206) (2 2 100) simpleGrading (1 1 1)
	hex (141 139 137 135 213 211 209 207) (2 2 100) simpleGrading (1 1 1)
	hex (140 138 139 141 212 210 211 213) (2 2 100) simpleGrading (1 1 1)

);

edges
(
	arc 2 3 (42.5 56.5 0)
	arc 3 9 (43.0 57.0 0)
	arc 9 8 (42.5 57.5 0)
	arc 8 2 (42.0 57.0 0)
	arc 74 75 (42.5 56.5 8)
	arc 75 81 (43.0 57.0 8)
	arc 81 80 (42.5 57.5 8)
	arc 80 74 (42.0 57.0 8)
	arc 12 13 (42.5 62.5 0)
	arc 13 19 (43.0 63.0 0)
	arc 19 18 (42.5 63.5 0)
	arc 18 12 (42.0 63.0 0)
	arc 84 85 (42.5 62.5 8)
	arc 85 91 (43.0 63.0 8)
	arc 91 90 (42.5 63.5 8)
	arc 90 84 (42.0 63.0 8)
	arc 22 23 (42.5 68.5 0)
	arc 23 29 (43.0 69.0 0)
	arc 29 28 (42.5 69.5 0)
	arc 28 22 (42.0 69.0 0)
	arc 94 95 (42.5 68.5 8)
	arc 95 101 (43.0 69.0 8)
	arc 101 100 (42.5 69.5 8)
	arc 100 94 (42.0 69.0 8)
	arc 32 33 (42.5 74.5 0)
	arc 33 39 (43.0 75.0 0)
	arc 39 38 (42.5 75.5 0)
	arc 38 32 (42.0 75.0 0)
	arc 104 105 (42.5 74.5 8)
	arc 105 111 (43.0 75.0 8)
	arc 111 110 (42.5 75.5 8)
	arc 110 104 (42.0 75.0 8)
	arc 42 43 (42.5 80.5 0)
	arc 43 49 (43.0 81.0 0)
	arc 49 48 (42.5 81.5 0)
	arc 48 42 (42.0 81.0 0)
	arc 114 115 (42.5 80.5 8)
	arc 115 121 (43.0 81.0 8)
	arc 121 120 (42.5 81.5 8)
	arc 120 114 (42.0 81.0 8)
	arc 52 53 (42.5 86.5 0)
	arc 53 59 (43.0 87.0 0)
	arc 59 58 (42.5 87.5 0)
	arc 58 52 (42.0 87.0 0)
	arc 124 125 (42.5 86.5 8)
	arc 125 131 (43.0 87.0 8)
	arc 131 130 (42.5 87.5 8)
	arc 130 124 (42.0 87.0 8)
	arc 62 63 (42.5 92.5 0)
	arc 63 69 (43.0 93.0 0)
	arc 69 68 (42.5 93.5 0)
	arc 68 62 (42.0 93.0 0)
	arc 134 135 (42.5 92.5 8)
	arc 135 141 (43.0 93.0 8)
	arc 141 140 (42.5 93.5 8)
	arc 140 134 (42.0 93.0 8)
	arc 146 147 (42.5 56.5 88)
	arc 147 153 (43.0 57.0 88)
	arc 153 152 (42.5 57.5 88)
	arc 152 146 (42.0 57.0 88)
	arc 156 157 (42.5 62.5 88)
	arc 157 163 (43.0 63.0 88)
	arc 163 162 (42.5 63.5 88)
	arc 162 156 (42.0 63.0 88)
	arc 166 167 (42.5 68.5 88)
	arc 167 173 (43.0 69.0 88)
	arc 173 172 (42.5 69.5 88)
	arc 172 166 (42.0 69.0 88)
	arc 176 177 (42.5 74.5 88)
	arc 177 183 (43.0 75.0 88)
	arc 183 182 (42.5 75.5 88)
	arc 182 176 (42.0 75.0 88)
	arc 186 187 (42.5 80.5 88)
	arc 187 193 (43.0 81.0 88)
	arc 193 192 (42.5 81.5 88)
	arc 192 186 (42.0 81.0 88)
	arc 196 197 (42.5 86.5 88)
	arc 197 203 (43.0 87.0 88)
	arc 203 202 (42.5 87.5 88)
	arc 202 196 (42.0 87.0 88)
	arc 206 207 (42.5 92.5 88)
	arc 207 213 (43.0 93.0 88)
	arc 213 212 (42.5 93.5 88)
	arc 212 206 (42.0 93.0 88)
);

patches
(
	patch bristle
	(
		(0 72 82 10)
		(11 83 73 1)
		(72 74 80 82)
		(73 75 74 72)
		(83 81 75 73)
		(82 80 81 83)
		(74 146 152 80)
		(75 147 146 74)
		(81 153 147 75)
		(80 152 153 81)
		(148 149 151 150)
		(146 148 150 152)
		(147 149 148 146)
		(153 151 149 147)
		(152 150 151 153)
		(10 82 92 20)
		(21 93 83 11)
		(82 84 90 92)
		(83 85 84 82)
		(93 91 85 83)
		(92 90 91 93)
		(84 156 162 90)
		(85 157 156 84)
		(91 163 157 85)
		(90 162 163 91)
		(158 159 161 160)
		(156 158 160 162)
		(157 159 158 156)
		(163 161 159 157)
		(162 160 161 163)
		(20 92 102 30)
		(31 103 93 21)
		(92 94 100 102)
		(93 95 94 92)
		(103 101 95 93)
		(102 100 101 103)
		(94 166 172 100)
		(95 167 166 94)
		(101 173 167 95)
		(100 172 173 101)
		(168 169 171 170)
		(166 168 170 172)
		(167 169 168 166)
		(173 171 169 167)
		(172 170 171 173)
		(30 102 112 40)
		(41 113 103 31)
		(102 104 110 112)
		(103 105 104 102)
		(113 111 105 103)
		(112 110 111 113)
		(104 176 182 110)
		(105 177 176 104)
		(111 183 177 105)
		(110 182 183 111)
		(178 179 181 180)
		(176 178 180 182)
		(177 179 178 176)
		(183 181 179 177)
		(182 180 181 183)
		(40 112 122 50)
		(51 123 113 41)
		(112 114 120 122)
		(113 115 114 112)
		(123 121 115 113)
		(122 120 121 123)
		(114 186 192 120)
		(115 187 186 114)
		(121 193 187 115)
		(120 192 193 121)
		(188 189 191 190)
		(186 188 190 192)
		(187 189 188 186)
		(193 191 189 187)
		(192 190 191 193)
		(50 122 132 60)
		(61 133 123 51)
		(122 124 130 132)
		(123 125 124 122)
		(133 131 125 123)
		(132 130 131 133)
		(124 196 202 130)
		(125 197 196 124)
		(131 203 197 125)
		(130 202 203 131)
		(198 199 201 200)
		(196 198 200 202)
		(197 199 198 196)
		(203 201 199 197)
		(202 200 201 203)
		(60 132 142 70)
		(71 143 133 61)
		(132 134 140 142)
		(133 135 134 132)
		(143 141 135 133)
		(142 140 141 143)
		(134 206 212 140)
		(135 207 206 134)
		(141 213 207 135)
		(140 212 213 141)
		(208 209 211 210)
		(206 208 210 212)
		(207 209 208 206)
		(213 211 209 207)
		(212 210 211 213)
		(0 1 73 72)
		(71 70 142 143)
	)

	patch plateFix
	(
		(6 7 5 4)
		(8 6 4 2)
		(2 4 5 3)
		(3 5 7 9)
		(9 7 6 8)
		(10 8 2 0)
		(0 2 3 1)
		(1 3 9 11)
		(11 9 8 10)
		(16 17 15 14)
		(18 16 14 12)
		(12 14 15 13)
		(13 15 17 19)
		(19 17 16 18)
		(20 18 12 10)
		(10 12 13 11)
		(11 13 19 21)
		(21 19 18 20)
		(26 27 25 24)
		(28 26 24 22)
		(22 24 25 23)
		(23 25 27 29)
		(29 27 26 28)
		(30 28 22 20)
		(20 22 23 21)
		(21 23 29 31)
		(31 29 28 30)
		(36 37 35 34)
		(38 36 34 32)
		(32 34 35 33)
		(33 35 37 39)
		(39 37 36 38)
		(40 38 32 30)
		(30 32 33 31)
		(31 33 39 41)
		(41 39 38 40)
		(46 47 45 44)
		(48 46 44 42)
		(42 44 45 43)
		(43 45 47 49)
		(49 47 46 48)
		(50 48 42 40)
		(40 42 43 41)
		(41 43 49 51)
		(51 49 48 50)
		(56 57 55 54)
		(58 56 54 52)
		(52 54 55 53)
		(53 55 57 59)
		(59 57 56 58)
		(60 58 52 50)
		(50 52 53 51)
		(51 53 59 61)
		(61 59 58 60)
		(66 67 65 64)
		(68 66 64 62)
		(62 64 65 63)
		(63 65 67 69)
		(69 67 66 68)
		(70 68 62 60)
		(60 62 63 61)
		(61 63 69 71)
		(71 69 68 70)
	)

);

mergePatchPairs
(
);


// ************************************************************************* //

