/*--------------------------------*- C++ -*----------------------------------*\
| =========                 |                                                 |
| \\      /  F ield         | foam-extend: Open Source CFD                    |
|  \\    /   O peration     | Version:     4.0                                |
|   \\  /    A nd           | Web:         http://www.foam-extend.org         |
|    \\/     M anipulation  |                                                 |
\*---------------------------------------------------------------------------*/
FoamFile
{
    version     2.0;
    format      ascii;
    class       dictionary;
    object      blockMeshDict;
}
// * * * * * * * * * * * * * * * * * * * * * * * * * * * * * * * * * * * * * //

convertToMeters 0.000001;

vertices
(
    (14823.2233 14823.2233 0)      //0 = 8
    (15176.7767 14823.2233 0)      //1 = 9
    (14823.2233 15176.7767 0)      //2 = 10
    (15176.7767 15176.7767 0)      //3 = 11

    (14823.2233 14823.2233 15000)      //4 = 28
    (15176.7767 14823.2233 15000)      //5 = 29
    (14823.2233 15176.7767 15000)      //6 = 30
    (15176.7767 15176.7767 15000)      //7 = 31
);

blocks
(
    hex (0 1 2 3 4 5 6 7) (13 13 400) simpleGrading (0.5 0.5 1)
);

edges
(
    arc 0 1 (15000.0 14750.0 0)
    arc 1 3 (15250.0 15000.0 0)
    arc 3 2 (15000.0 15250.0 0)
    arc 2 0 (14750.0 15000.0 0)

    arc 4 5 (15000.0 14750.0 15000)
    arc 5 7 (15250.0 15000.0 15000)
    arc 7 6 (15000.0 15250.0 15000)
    arc 6 4 (14750.0 15000.0 15000)
);

patches
(
    patch plateFix
    (
        (0 1 3 2)
    )

    patch cylinder
    (
        (4 0 1 2 6)
        (4 0 1 5)
        (5 1 3 7)
        (6 2 3 7)
        (4 5 7 6)
    )
);

mergePatchPairs
(
);


// ************************************************************************* //
