/*--------------------------------*- C++ -*----------------------------------*\
| =========                 |                                                 |
| \      /  F ield         | foam-extend: Open Source CFD                    |
|  \    /   O peration     | Version:     4.0                                |
|   \  /    A nd           | Web:         http://www.foam-extend.org         |
|    \/     M anipulation  |                                                 |
\*---------------------------------------------------------------------------*/
FoamFile
{
    version     2.0;
    format      ascii;
    class       dictionary;
    object      blockMeshDict;
}
// * * * * * * * * * * * * * * * * * * * * * * * * * * * * * * * * * * * * * //

convertToMeters 0.001;
vertices
(
	(811.6117 1836.6117 0)      //0
	(988.3883 1836.6117 0)      //1
	(988.3883 2013.3883 0)      //2
	(811.6117 2013.3883 0)      //3
	(811.6117 736.6117 0)      //4
	(988.3883 736.6117 0)      //5
	(988.3883 913.3883 0)      //6
	(811.6117 913.3883 0)      //7
	(811.6117 2936.6117 0)      //8
	(988.3883 2936.6117 0)      //9
	(988.3883 3113.3883 0)      //10
	(811.6117 3113.3883 0)      //11
	(811.6117 1286.6117 0)      //12
	(988.3883 1286.6117 0)      //13
	(988.3883 1463.3883 0)      //14
	(811.6117 1463.3883 0)      //15
	(811.6117 2386.6117 0)      //16
	(988.3883 2386.6117 0)      //17
	(988.3883 2563.3883 0)      //18
	(811.6117 2563.3883 0)      //19
	(600 550 0)      //20
	(1200 550 0)      //21
	(600 3300 0)      //22
	(1200 3300 0)      //23
	(723.2233 1748.2233 0)      //24
	(1076.7767 1748.2233 0)      //25
	(723.2233 2101.7767 0)      //26
	(1076.7767 2101.7767 0)      //27
	(723.2233 648.2233 0)      //28
	(1076.7767 648.2233 0)      //29
	(723.2233 1001.7767 0)      //30
	(1076.7767 1001.7767 0)      //31
	(600 1100 0)      //32
	(1200 1100 0)      //33
	(723.2233 2848.2233 0)      //34
	(1076.7767 2848.2233 0)      //35
	(723.2233 3201.7767 0)      //36
	(1076.7767 3201.7767 0)      //37
	(600 2750 0)      //38
	(1200 2750 0)      //39
	(723.2233 1198.2233 0)      //40
	(1076.7767 1198.2233 0)      //41
	(723.2233 1551.7767 0)      //42
	(1076.7767 1551.7767 0)      //43
	(600 1650 0)      //44
	(1200 1650 0)      //45
	(723.2233 2298.2233 0)      //46
	(1076.7767 2298.2233 0)      //47
	(723.2233 2651.7767 0)      //48
	(1076.7767 2651.7767 0)      //49
	(600 2200 0)      //50
	(1200 2200 0)      //51

	(811.6117 1836.6117 150)      //52
	(988.3883 1836.6117 150)      //53
	(988.3883 2013.3883 150)      //54
	(811.6117 2013.3883 150)      //55
	(811.6117 736.6117 150)      //56
	(988.3883 736.6117 150)      //57
	(988.3883 913.3883 150)      //58
	(811.6117 913.3883 150)      //59
	(811.6117 2936.6117 150)      //60
	(988.3883 2936.6117 150)      //61
	(988.3883 3113.3883 150)      //62
	(811.6117 3113.3883 150)      //63
	(811.6117 1286.6117 150)      //64
	(988.3883 1286.6117 150)      //65
	(988.3883 1463.3883 150)      //66
	(811.6117 1463.3883 150)      //67
	(811.6117 2386.6117 150)      //68
	(988.3883 2386.6117 150)      //69
	(988.3883 2563.3883 150)      //70
	(811.6117 2563.3883 150)      //71
	(600 550 150)      //72
	(1200 550 150)      //73
	(600 3300 150)      //74
	(1200 3300 150)      //75
	(723.2233 1748.2233 150)      //76
	(1076.7767 1748.2233 150)      //77
	(723.2233 2101.7767 150)      //78
	(1076.7767 2101.7767 150)      //79
	(723.2233 648.2233 150)      //80
	(1076.7767 648.2233 150)      //81
	(723.2233 1001.7767 150)      //82
	(1076.7767 1001.7767 150)      //83
	(600 1100 150)      //84
	(1200 1100 150)      //85
	(723.2233 2848.2233 150)      //86
	(1076.7767 2848.2233 150)      //87
	(723.2233 3201.7767 150)      //88
	(1076.7767 3201.7767 150)      //89
	(600 2750 150)      //90
	(1200 2750 150)      //91
	(723.2233 1198.2233 150)      //92
	(1076.7767 1198.2233 150)      //93
	(723.2233 1551.7767 150)      //94
	(1076.7767 1551.7767 150)      //95
	(600 1650 150)      //96
	(1200 1650 150)      //97
	(723.2233 2298.2233 150)      //98
	(1076.7767 2298.2233 150)      //99
	(723.2233 2651.7767 150)      //100
	(1076.7767 2651.7767 150)      //101
	(600 2200 150)      //102
	(1200 2200 150)      //103

	(811.6117 1836.6117 1650)      //104
	(988.3883 1836.6117 1650)      //105
	(988.3883 2013.3883 1650)      //106
	(811.6117 2013.3883 1650)      //107
	(811.6117 736.6117 1650)      //108
	(988.3883 736.6117 1650)      //109
	(988.3883 913.3883 1650)      //110
	(811.6117 913.3883 1650)      //111
	(811.6117 2936.6117 1650)      //112
	(988.3883 2936.6117 1650)      //113
	(988.3883 3113.3883 1650)      //114
	(811.6117 3113.3883 1650)      //115
	(811.6117 1286.6117 1650)      //116
	(988.3883 1286.6117 1650)      //117
	(988.3883 1463.3883 1650)      //118
	(811.6117 1463.3883 1650)      //119
	(811.6117 2386.6117 1650)      //120
	(988.3883 2386.6117 1650)      //121
	(988.3883 2563.3883 1650)      //122
	(811.6117 2563.3883 1650)      //123
	(723.2233 1748.2233 1650)      //124
	(1076.7767 1748.2233 1650)      //125
	(723.2233 2101.7767 1650)      //126
	(1076.7767 2101.7767 1650)      //127
	(723.2233 648.2233 1650)      //128
	(1076.7767 648.2233 1650)      //129
	(723.2233 1001.7767 1650)      //130
	(1076.7767 1001.7767 1650)      //131
	(723.2233 2848.2233 1650)      //132
	(1076.7767 2848.2233 1650)      //133
	(723.2233 3201.7767 1650)      //134
	(1076.7767 3201.7767 1650)      //135
	(723.2233 1198.2233 1650)      //136
	(1076.7767 1198.2233 1650)      //137
	(723.2233 1551.7767 1650)      //138
	(1076.7767 1551.7767 1650)      //139
	(723.2233 2298.2233 1650)      //140
	(1076.7767 2298.2233 1650)      //141
	(723.2233 2651.7767 1650)      //142
	(1076.7767 2651.7767 1650)      //143

);

blocks
(
	hex (4 5 6 7 56 57 58 59) (5 5 1) simpleGrading (1 1 1)
	hex (28 4 7 30 80 56 59 82) (5 5 1) simpleGrading (1 1 1)
	hex (29 5 4 28 81 57 56 80) (5 5 1) simpleGrading (1 1 1)
	hex (31 6 5 29 83 58 57 81) (5 5 1) simpleGrading (1 1 1)
	hex (30 7 6 31 82 59 58 83) (5 5 1) simpleGrading (1 1 1)
	hex (20 28 30 32 72 80 82 84) (5 5 1) simpleGrading (1 1 1)
	hex (21 29 28 20 73 81 80 72) (5 5 1) simpleGrading (1 1 1)
	hex (33 31 29 21 85 83 81 73) (5 5 1) simpleGrading (1 1 1)
	hex (32 30 31 33 84 82 83 85) (5 5 1) simpleGrading (1 1 1)
	hex (56 57 58 59 108 109 110 111) (5 5 10) simpleGrading (1 1 1)
	hex (80 56 59 82 128 108 111 130) (5 5 10) simpleGrading (1 1 1)
	hex (81 57 56 80 129 109 108 128) (5 5 10) simpleGrading (1 1 1)
	hex (83 58 57 81 131 110 109 129) (5 5 10) simpleGrading (1 1 1)
	hex (82 59 58 83 130 111 110 131) (5 5 10) simpleGrading (1 1 1)
	hex (12 13 14 15 64 65 66 67) (5 5 1) simpleGrading (1 1 1)
	hex (40 12 15 42 92 64 67 94) (5 5 1) simpleGrading (1 1 1)
	hex (41 13 12 40 93 65 64 92) (5 5 1) simpleGrading (1 1 1)
	hex (43 14 13 41 95 66 65 93) (5 5 1) simpleGrading (1 1 1)
	hex (42 15 14 43 94 67 66 95) (5 5 1) simpleGrading (1 1 1)
	hex (32 40 42 44 84 92 94 96) (5 5 1) simpleGrading (1 1 1)
	hex (33 41 40 32 85 93 92 84) (5 5 1) simpleGrading (1 1 1)
	hex (45 43 41 33 97 95 93 85) (5 5 1) simpleGrading (1 1 1)
	hex (44 42 43 45 96 94 95 97) (5 5 1) simpleGrading (1 1 1)
	hex (64 65 66 67 116 117 118 119) (5 5 10) simpleGrading (1 1 1)
	hex (92 64 67 94 136 116 119 138) (5 5 10) simpleGrading (1 1 1)
	hex (93 65 64 92 137 117 116 136) (5 5 10) simpleGrading (1 1 1)
	hex (95 66 65 93 139 118 117 137) (5 5 10) simpleGrading (1 1 1)
	hex (94 67 66 95 138 119 118 139) (5 5 10) simpleGrading (1 1 1)
	hex (0 1 2 3 52 53 54 55) (5 5 1) simpleGrading (1 1 1)
	hex (24 0 3 26 76 52 55 78) (5 5 1) simpleGrading (1 1 1)
	hex (25 1 0 24 77 53 52 76) (5 5 1) simpleGrading (1 1 1)
	hex (27 2 1 25 79 54 53 77) (5 5 1) simpleGrading (1 1 1)
	hex (26 3 2 27 78 55 54 79) (5 5 1) simpleGrading (1 1 1)
	hex (44 24 26 50 96 76 78 102) (5 5 1) simpleGrading (1 1 1)
	hex (45 25 24 44 97 77 76 96) (5 5 1) simpleGrading (1 1 1)
	hex (51 27 25 45 103 79 77 97) (5 5 1) simpleGrading (1 1 1)
	hex (50 26 27 51 102 78 79 103) (5 5 1) simpleGrading (1 1 1)
	hex (52 53 54 55 104 105 106 107) (5 5 10) simpleGrading (1 1 1)
	hex (76 52 55 78 124 104 107 126) (5 5 10) simpleGrading (1 1 1)
	hex (77 53 52 76 125 105 104 124) (5 5 10) simpleGrading (1 1 1)
	hex (79 54 53 77 127 106 105 125) (5 5 10) simpleGrading (1 1 1)
	hex (78 55 54 79 126 107 106 127) (5 5 10) simpleGrading (1 1 1)
	hex (16 17 18 19 68 69 70 71) (5 5 1) simpleGrading (1 1 1)
	hex (46 16 19 48 98 68 71 100) (5 5 1) simpleGrading (1 1 1)
	hex (47 17 16 46 99 69 68 98) (5 5 1) simpleGrading (1 1 1)
	hex (49 18 17 47 101 70 69 99) (5 5 1) simpleGrading (1 1 1)
	hex (48 19 18 49 100 71 70 101) (5 5 1) simpleGrading (1 1 1)
	hex (50 46 48 38 102 98 100 90) (5 5 1) simpleGrading (1 1 1)
	hex (51 47 46 50 103 99 98 102) (5 5 1) simpleGrading (1 1 1)
	hex (39 49 47 51 91 101 99 103) (5 5 1) simpleGrading (1 1 1)
	hex (38 48 49 39 90 100 101 91) (5 5 1) simpleGrading (1 1 1)
	hex (68 69 70 71 120 121 122 123) (5 5 10) simpleGrading (1 1 1)
	hex (98 68 71 100 140 120 123 142) (5 5 10) simpleGrading (1 1 1)
	hex (99 69 68 98 141 121 120 140) (5 5 10) simpleGrading (1 1 1)
	hex (101 70 69 99 143 122 121 141) (5 5 10) simpleGrading (1 1 1)
	hex (100 71 70 101 142 123 122 143) (5 5 10) simpleGrading (1 1 1)
	hex (8 9 10 11 60 61 62 63) (5 5 1) simpleGrading (1 1 1)
	hex (34 8 11 36 86 60 63 88) (5 5 1) simpleGrading (1 1 1)
	hex (35 9 8 34 87 61 60 86) (5 5 1) simpleGrading (1 1 1)
	hex (37 10 9 35 89 62 61 87) (5 5 1) simpleGrading (1 1 1)
	hex (36 11 10 37 88 63 62 89) (5 5 1) simpleGrading (1 1 1)
	hex (38 34 36 22 90 86 88 74) (5 5 1) simpleGrading (1 1 1)
	hex (39 35 34 38 91 87 86 90) (5 5 1) simpleGrading (1 1 1)
	hex (23 37 35 39 75 89 87 91) (5 5 1) simpleGrading (1 1 1)
	hex (22 36 37 23 74 88 89 75) (5 5 1) simpleGrading (1 1 1)
	hex (60 61 62 63 112 113 114 115) (5 5 10) simpleGrading (1 1 1)
	hex (86 60 63 88 132 112 115 134) (5 5 10) simpleGrading (1 1 1)
	hex (87 61 60 86 133 113 112 132) (5 5 10) simpleGrading (1 1 1)
	hex (89 62 61 87 135 114 113 133) (5 5 10) simpleGrading (1 1 1)
	hex (88 63 62 89 134 115 114 135) (5 5 10) simpleGrading (1 1 1)

);

edges
(
	arc 28 29 (900.0 1675.0 0)
	arc 29 31 (1150.0 1925.0 0)
	arc 31 30 (900.0 2175.0 0)
	arc 30 28 (650.0 1925.0 0)
	arc 80 81 (900.0 1675.0 150)
	arc 81 83 (1150.0 1925.0 150)
	arc 83 82 (900.0 2175.0 150)
	arc 82 80 (650.0 1925.0 150)
	arc 40 41 (900.0 1675.0 0)
	arc 41 43 (1150.0 1925.0 0)
	arc 43 42 (900.0 2175.0 0)
	arc 42 40 (650.0 1925.0 0)
	arc 92 93 (900.0 1675.0 150)
	arc 93 95 (1150.0 1925.0 150)
	arc 95 94 (900.0 2175.0 150)
	arc 94 92 (650.0 1925.0 150)
	arc 24 25 (900.0 1675.0 0)
	arc 25 27 (1150.0 1925.0 0)
	arc 27 26 (900.0 2175.0 0)
	arc 26 24 (650.0 1925.0 0)
	arc 76 77 (900.0 1675.0 150)
	arc 77 79 (1150.0 1925.0 150)
	arc 79 78 (900.0 2175.0 150)
	arc 78 76 (650.0 1925.0 150)
	arc 46 47 (900.0 1675.0 0)
	arc 47 49 (1150.0 1925.0 0)
	arc 49 48 (900.0 2175.0 0)
	arc 48 46 (650.0 1925.0 0)
	arc 98 99 (900.0 1675.0 150)
	arc 99 101 (1150.0 1925.0 150)
	arc 101 100 (900.0 2175.0 150)
	arc 100 98 (650.0 1925.0 150)
	arc 34 35 (900.0 1675.0 0)
	arc 35 37 (1150.0 1925.0 0)
	arc 37 36 (900.0 2175.0 0)
	arc 36 34 (650.0 1925.0 0)
	arc 86 87 (900.0 1675.0 150)
	arc 87 89 (1150.0 1925.0 150)
	arc 89 88 (900.0 2175.0 150)
	arc 88 86 (650.0 1925.0 150)
	arc 128 129 (900.0 1675.0 1650)
	arc 129 131 (1150.0 1925.0 1650)
	arc 131 130 (900.0 2175.0 1650)
	arc 130 128 (650.0 1925.0 1650)
	arc 136 137 (900.0 1675.0 1650)
	arc 137 139 (1150.0 1925.0 1650)
	arc 139 138 (900.0 2175.0 1650)
	arc 138 136 (650.0 1925.0 1650)
	arc 124 125 (900.0 1675.0 1650)
	arc 125 127 (1150.0 1925.0 1650)
	arc 127 126 (900.0 2175.0 1650)
	arc 126 124 (650.0 1925.0 1650)
	arc 140 141 (900.0 1675.0 1650)
	arc 141 143 (1150.0 1925.0 1650)
	arc 143 142 (900.0 2175.0 1650)
	arc 142 140 (650.0 1925.0 1650)
	arc 132 133 (900.0 1675.0 1650)
	arc 133 135 (1150.0 1925.0 1650)
	arc 135 134 (900.0 2175.0 1650)
	arc 134 132 (650.0 1925.0 1650)
);

patches
(
	patch bristle
	(
		(20 72 84 32)
		(33 85 73 21)
		(72 80 82 84)
		(73 81 80 72)
		(85 83 81 73)
		(84 82 83 85)
		(80 128 130 82)
		(81 129 128 80)
		(83 131 129 81)
		(82 130 131 83)
		(108 109 110 111)
		(128 108 111 130)
		(129 109 108 128)
		(131 110 109 129)
		(130 111 110 131)
		(32 84 96 44)
		(45 97 85 33)
		(84 92 94 96)
		(85 93 92 84)
		(97 95 93 85)
		(96 94 95 97)
		(92 136 138 94)
		(93 137 136 92)
		(95 139 137 93)
		(94 138 139 95)
		(116 117 118 119)
		(136 116 119 138)
		(137 117 116 136)
		(139 118 117 137)
		(138 119 118 139)
		(44 96 102 50)
		(51 103 97 45)
		(96 76 78 102)
		(97 77 76 96)
		(103 79 77 97)
		(102 78 79 103)
		(76 124 126 78)
		(77 125 124 76)
		(79 127 125 77)
		(78 126 127 79)
		(104 105 106 107)
		(124 104 107 126)
		(125 105 104 124)
		(127 106 105 125)
		(126 107 106 127)
		(50 102 90 38)
		(39 91 103 51)
		(102 98 100 90)
		(103 99 98 102)
		(91 101 99 103)
		(90 100 101 91)
		(98 140 142 100)
		(99 141 140 98)
		(101 143 141 99)
		(100 142 143 101)
		(120 121 122 123)
		(140 120 123 142)
		(141 121 120 140)
		(143 122 121 141)
		(142 123 122 143)
		(38 90 74 22)
		(23 75 91 39)
		(90 86 88 74)
		(91 87 86 90)
		(75 89 87 91)
		(74 88 89 75)
		(86 132 134 88)
		(87 133 132 86)
		(89 135 133 87)
		(88 134 135 89)
		(112 113 114 115)
		(132 112 115 134)
		(133 113 112 132)
		(135 114 113 133)
		(134 115 114 135)
		(20 21 73 72)
		(23 22 74 75)
	)

	patch plateFix
	(
		(32 30 28 20)
		(20 28 29 21)
		(21 29 31 33)
		(33 31 30 32)
		(7 6 5 4)
		(30 7 4 28)
		(28 4 5 29)
		(29 5 6 31)
		(31 6 7 30)
		(44 42 40 32)
		(32 40 41 33)
		(33 41 43 45)
		(45 43 42 44)
		(15 14 13 12)
		(42 15 12 40)
		(40 12 13 41)
		(41 13 14 43)
		(43 14 15 42)
		(50 26 24 44)
		(44 24 25 45)
		(45 25 27 51)
		(51 27 26 50)
		(3 2 1 0)
		(26 3 0 24)
		(24 0 1 25)
		(25 1 2 27)
		(27 2 3 26)
		(38 48 46 50)
		(50 46 47 51)
		(51 47 49 39)
		(39 49 48 38)
		(19 18 17 16)
		(48 19 16 46)
		(46 16 17 47)
		(47 17 18 49)
		(49 18 19 48)
		(22 36 34 38)
		(38 34 35 39)
		(39 35 37 23)
		(23 37 36 22)
		(11 10 9 8)
		(36 11 8 34)
		(34 8 9 35)
		(35 9 10 37)
		(37 10 11 36)
		(20 21 23 22)
	)

);

mergePatchPairs
(
);


// ************************************************************************* //

