/*--------------------------------*- C++ -*----------------------------------*\
| =========                 |                                                 |
| \      /  F ield         | foam-extend: Open Source CFD                    |
|  \    /   O peration     | Version:     4.0                                |
|   \  /    A nd           | Web:         http://www.foam-extend.org         |
|    \/     M anipulation  |                                                 |
\*---------------------------------------------------------------------------*/
FoamFile
{
    version     2.0;
    format      ascii;
    class       dictionary;
    object      blockMeshDict;
}
// * * * * * * * * * * * * * * * * * * * * * * * * * * * * * * * * * * * * * //

convertToMeters 0.001;
vertices
(
	(92 94 0)      //0
	(108 94 0)      //1
	(99.6464 101.6464 0)      //2
	(100.3536 101.6464 0)      //3
	(99.8232 101.8232 0)      //4
	(100.1768 101.8232 0)      //5
	(99.8232 102.1768 0)      //6
	(100.1768 102.1768 0)      //7
	(99.6464 102.3536 0)      //8
	(100.3536 102.3536 0)      //9
	(92 110 0)      //10
	(108 110 0)      //11
	(99.6464 117.6464 0)      //12
	(100.3536 117.6464 0)      //13
	(99.8232 117.8232 0)      //14
	(100.1768 117.8232 0)      //15
	(99.8232 118.1768 0)      //16
	(100.1768 118.1768 0)      //17
	(99.6464 118.3536 0)      //18
	(100.3536 118.3536 0)      //19
	(92 126 0)      //20
	(108 126 0)      //21
	(99.6464 133.6464 0)      //22
	(100.3536 133.6464 0)      //23
	(99.8232 133.8232 0)      //24
	(100.1768 133.8232 0)      //25
	(99.8232 134.1768 0)      //26
	(100.1768 134.1768 0)      //27
	(99.6464 134.3536 0)      //28
	(100.3536 134.3536 0)      //29
	(92 142 0)      //30
	(108 142 0)      //31
	(99.6464 149.6464 0)      //32
	(100.3536 149.6464 0)      //33
	(99.8232 149.8232 0)      //34
	(100.1768 149.8232 0)      //35
	(99.8232 150.1768 0)      //36
	(100.1768 150.1768 0)      //37
	(99.6464 150.3536 0)      //38
	(100.3536 150.3536 0)      //39
	(92 158 0)      //40
	(108 158 0)      //41
	(99.6464 165.6464 0)      //42
	(100.3536 165.6464 0)      //43
	(99.8232 165.8232 0)      //44
	(100.1768 165.8232 0)      //45
	(99.8232 166.1768 0)      //46
	(100.1768 166.1768 0)      //47
	(99.6464 166.3536 0)      //48
	(100.3536 166.3536 0)      //49
	(92 174 0)      //50
	(108 174 0)      //51
	(99.6464 181.6464 0)      //52
	(100.3536 181.6464 0)      //53
	(99.8232 181.8232 0)      //54
	(100.1768 181.8232 0)      //55
	(99.8232 182.1768 0)      //56
	(100.1768 182.1768 0)      //57
	(99.6464 182.3536 0)      //58
	(100.3536 182.3536 0)      //59
	(92 190 0)      //60
	(108 190 0)      //61
	(99.6464 197.6464 0)      //62
	(100.3536 197.6464 0)      //63
	(99.8232 197.8232 0)      //64
	(100.1768 197.8232 0)      //65
	(99.8232 198.1768 0)      //66
	(100.1768 198.1768 0)      //67
	(99.6464 198.3536 0)      //68
	(100.3536 198.3536 0)      //69
	(92 206 0)      //70
	(108 206 0)      //71
	(92 94 1)      //72
	(108 94 1)      //73
	(99.6464 101.6464 1)      //74
	(100.3536 101.6464 1)      //75
	(99.8232 101.8232 1)      //76
	(100.1768 101.8232 1)      //77
	(99.8232 102.1768 1)      //78
	(100.1768 102.1768 1)      //79
	(99.6464 102.3536 1)      //80
	(100.3536 102.3536 1)      //81
	(92 110 1)      //82
	(108 110 1)      //83
	(99.6464 117.6464 1)      //84
	(100.3536 117.6464 1)      //85
	(99.8232 117.8232 1)      //86
	(100.1768 117.8232 1)      //87
	(99.8232 118.1768 1)      //88
	(100.1768 118.1768 1)      //89
	(99.6464 118.3536 1)      //90
	(100.3536 118.3536 1)      //91
	(92 126 1)      //92
	(108 126 1)      //93
	(99.6464 133.6464 1)      //94
	(100.3536 133.6464 1)      //95
	(99.8232 133.8232 1)      //96
	(100.1768 133.8232 1)      //97
	(99.8232 134.1768 1)      //98
	(100.1768 134.1768 1)      //99
	(99.6464 134.3536 1)      //100
	(100.3536 134.3536 1)      //101
	(92 142 1)      //102
	(108 142 1)      //103
	(99.6464 149.6464 1)      //104
	(100.3536 149.6464 1)      //105
	(99.8232 149.8232 1)      //106
	(100.1768 149.8232 1)      //107
	(99.8232 150.1768 1)      //108
	(100.1768 150.1768 1)      //109
	(99.6464 150.3536 1)      //110
	(100.3536 150.3536 1)      //111
	(92 158 1)      //112
	(108 158 1)      //113
	(99.6464 165.6464 1)      //114
	(100.3536 165.6464 1)      //115
	(99.8232 165.8232 1)      //116
	(100.1768 165.8232 1)      //117
	(99.8232 166.1768 1)      //118
	(100.1768 166.1768 1)      //119
	(99.6464 166.3536 1)      //120
	(100.3536 166.3536 1)      //121
	(92 174 1)      //122
	(108 174 1)      //123
	(99.6464 181.6464 1)      //124
	(100.3536 181.6464 1)      //125
	(99.8232 181.8232 1)      //126
	(100.1768 181.8232 1)      //127
	(99.8232 182.1768 1)      //128
	(100.1768 182.1768 1)      //129
	(99.6464 182.3536 1)      //130
	(100.3536 182.3536 1)      //131
	(92 190 1)      //132
	(108 190 1)      //133
	(99.6464 197.6464 1)      //134
	(100.3536 197.6464 1)      //135
	(99.8232 197.8232 1)      //136
	(100.1768 197.8232 1)      //137
	(99.8232 198.1768 1)      //138
	(100.1768 198.1768 1)      //139
	(99.6464 198.3536 1)      //140
	(100.3536 198.3536 1)      //141
	(92 206 1)      //142
	(108 206 1)      //143
	(92 94 101)      //144
	(108 94 101)      //145
	(99.6464 101.6464 101)      //146
	(100.3536 101.6464 101)      //147
	(99.8232 101.8232 101)      //148
	(100.1768 101.8232 101)      //149
	(99.8232 102.1768 101)      //150
	(100.1768 102.1768 101)      //151
	(99.6464 102.3536 101)      //152
	(100.3536 102.3536 101)      //153
	(92 110 101)      //154
	(108 110 101)      //155
	(99.6464 117.6464 101)      //156
	(100.3536 117.6464 101)      //157
	(99.8232 117.8232 101)      //158
	(100.1768 117.8232 101)      //159
	(99.8232 118.1768 101)      //160
	(100.1768 118.1768 101)      //161
	(99.6464 118.3536 101)      //162
	(100.3536 118.3536 101)      //163
	(92 126 101)      //164
	(108 126 101)      //165
	(99.6464 133.6464 101)      //166
	(100.3536 133.6464 101)      //167
	(99.8232 133.8232 101)      //168
	(100.1768 133.8232 101)      //169
	(99.8232 134.1768 101)      //170
	(100.1768 134.1768 101)      //171
	(99.6464 134.3536 101)      //172
	(100.3536 134.3536 101)      //173
	(92 142 101)      //174
	(108 142 101)      //175
	(99.6464 149.6464 101)      //176
	(100.3536 149.6464 101)      //177
	(99.8232 149.8232 101)      //178
	(100.1768 149.8232 101)      //179
	(99.8232 150.1768 101)      //180
	(100.1768 150.1768 101)      //181
	(99.6464 150.3536 101)      //182
	(100.3536 150.3536 101)      //183
	(92 158 101)      //184
	(108 158 101)      //185
	(99.6464 165.6464 101)      //186
	(100.3536 165.6464 101)      //187
	(99.8232 165.8232 101)      //188
	(100.1768 165.8232 101)      //189
	(99.8232 166.1768 101)      //190
	(100.1768 166.1768 101)      //191
	(99.6464 166.3536 101)      //192
	(100.3536 166.3536 101)      //193
	(92 174 101)      //194
	(108 174 101)      //195
	(99.6464 181.6464 101)      //196
	(100.3536 181.6464 101)      //197
	(99.8232 181.8232 101)      //198
	(100.1768 181.8232 101)      //199
	(99.8232 182.1768 101)      //200
	(100.1768 182.1768 101)      //201
	(99.6464 182.3536 101)      //202
	(100.3536 182.3536 101)      //203
	(92 190 101)      //204
	(108 190 101)      //205
	(99.6464 197.6464 101)      //206
	(100.3536 197.6464 101)      //207
	(99.8232 197.8232 101)      //208
	(100.1768 197.8232 101)      //209
	(99.8232 198.1768 101)      //210
	(100.1768 198.1768 101)      //211
	(99.6464 198.3536 101)      //212
	(100.3536 198.3536 101)      //213
	(92 206 101)      //214
	(108 206 101)      //215

);

blocks
(
	hex (4 5 7 6 76 77 79 78) (2 2 2) simpleGrading (1 1 1)
	hex (2 4 6 8 74 76 78 80) (2 2 2) simpleGrading (1 1 1)
	hex (3 5 4 2 75 77 76 74) (2 2 2) simpleGrading (1 1 1)
	hex (9 7 5 3 81 79 77 75) (2 2 2) simpleGrading (1 1 1)
	hex (8 6 7 9 80 78 79 81) (2 2 2) simpleGrading (1 1 1)
	hex (0 2 8 10 72 74 80 82) (5 2 2) simpleGrading (0.2 1 1)
	hex (1 3 2 0 73 75 74 72) (5 2 2) simpleGrading (0.2 1 1)
	hex (11 9 3 1 83 81 75 73) (5 2 2) simpleGrading (0.2 1 1)
	hex (10 8 9 11 82 80 81 83) (5 2 2) simpleGrading (0.2 1 1)
	hex (76 77 79 78 148 149 151 150) (2 2 100) simpleGrading (1 1 1)
	hex (74 76 78 80 146 148 150 152) (2 2 100) simpleGrading (1 1 1)
	hex (75 77 76 74 147 149 148 146) (2 2 100) simpleGrading (1 1 1)
	hex (81 79 77 75 153 151 149 147) (2 2 100) simpleGrading (1 1 1)
	hex (80 78 79 81 152 150 151 153) (2 2 100) simpleGrading (1 1 1)
	hex (14 15 17 16 86 87 89 88) (2 2 2) simpleGrading (1 1 1)
	hex (12 14 16 18 84 86 88 90) (2 2 2) simpleGrading (1 1 1)
	hex (13 15 14 12 85 87 86 84) (2 2 2) simpleGrading (1 1 1)
	hex (19 17 15 13 91 89 87 85) (2 2 2) simpleGrading (1 1 1)
	hex (18 16 17 19 90 88 89 91) (2 2 2) simpleGrading (1 1 1)
	hex (10 12 18 20 82 84 90 92) (5 2 2) simpleGrading (0.2 1 1)
	hex (11 13 12 10 83 85 84 82) (5 2 2) simpleGrading (0.2 1 1)
	hex (21 19 13 11 93 91 85 83) (5 2 2) simpleGrading (0.2 1 1)
	hex (20 18 19 21 92 90 91 93) (5 2 2) simpleGrading (0.2 1 1)
	hex (86 87 89 88 158 159 161 160) (2 2 100) simpleGrading (1 1 1)
	hex (84 86 88 90 156 158 160 162) (2 2 100) simpleGrading (1 1 1)
	hex (85 87 86 84 157 159 158 156) (2 2 100) simpleGrading (1 1 1)
	hex (91 89 87 85 163 161 159 157) (2 2 100) simpleGrading (1 1 1)
	hex (90 88 89 91 162 160 161 163) (2 2 100) simpleGrading (1 1 1)
	hex (24 25 27 26 96 97 99 98) (2 2 2) simpleGrading (1 1 1)
	hex (22 24 26 28 94 96 98 100) (2 2 2) simpleGrading (1 1 1)
	hex (23 25 24 22 95 97 96 94) (2 2 2) simpleGrading (1 1 1)
	hex (29 27 25 23 101 99 97 95) (2 2 2) simpleGrading (1 1 1)
	hex (28 26 27 29 100 98 99 101) (2 2 2) simpleGrading (1 1 1)
	hex (20 22 28 30 92 94 100 102) (5 2 2) simpleGrading (0.2 1 1)
	hex (21 23 22 20 93 95 94 92) (5 2 2) simpleGrading (0.2 1 1)
	hex (31 29 23 21 103 101 95 93) (5 2 2) simpleGrading (0.2 1 1)
	hex (30 28 29 31 102 100 101 103) (5 2 2) simpleGrading (0.2 1 1)
	hex (96 97 99 98 168 169 171 170) (2 2 100) simpleGrading (1 1 1)
	hex (94 96 98 100 166 168 170 172) (2 2 100) simpleGrading (1 1 1)
	hex (95 97 96 94 167 169 168 166) (2 2 100) simpleGrading (1 1 1)
	hex (101 99 97 95 173 171 169 167) (2 2 100) simpleGrading (1 1 1)
	hex (100 98 99 101 172 170 171 173) (2 2 100) simpleGrading (1 1 1)
	hex (34 35 37 36 106 107 109 108) (2 2 2) simpleGrading (1 1 1)
	hex (32 34 36 38 104 106 108 110) (2 2 2) simpleGrading (1 1 1)
	hex (33 35 34 32 105 107 106 104) (2 2 2) simpleGrading (1 1 1)
	hex (39 37 35 33 111 109 107 105) (2 2 2) simpleGrading (1 1 1)
	hex (38 36 37 39 110 108 109 111) (2 2 2) simpleGrading (1 1 1)
	hex (30 32 38 40 102 104 110 112) (5 2 2) simpleGrading (0.2 1 1)
	hex (31 33 32 30 103 105 104 102) (5 2 2) simpleGrading (0.2 1 1)
	hex (41 39 33 31 113 111 105 103) (5 2 2) simpleGrading (0.2 1 1)
	hex (40 38 39 41 112 110 111 113) (5 2 2) simpleGrading (0.2 1 1)
	hex (106 107 109 108 178 179 181 180) (2 2 100) simpleGrading (1 1 1)
	hex (104 106 108 110 176 178 180 182) (2 2 100) simpleGrading (1 1 1)
	hex (105 107 106 104 177 179 178 176) (2 2 100) simpleGrading (1 1 1)
	hex (111 109 107 105 183 181 179 177) (2 2 100) simpleGrading (1 1 1)
	hex (110 108 109 111 182 180 181 183) (2 2 100) simpleGrading (1 1 1)
	hex (44 45 47 46 116 117 119 118) (2 2 2) simpleGrading (1 1 1)
	hex (42 44 46 48 114 116 118 120) (2 2 2) simpleGrading (1 1 1)
	hex (43 45 44 42 115 117 116 114) (2 2 2) simpleGrading (1 1 1)
	hex (49 47 45 43 121 119 117 115) (2 2 2) simpleGrading (1 1 1)
	hex (48 46 47 49 120 118 119 121) (2 2 2) simpleGrading (1 1 1)
	hex (40 42 48 50 112 114 120 122) (5 2 2) simpleGrading (0.2 1 1)
	hex (41 43 42 40 113 115 114 112) (5 2 2) simpleGrading (0.2 1 1)
	hex (51 49 43 41 123 121 115 113) (5 2 2) simpleGrading (0.2 1 1)
	hex (50 48 49 51 122 120 121 123) (5 2 2) simpleGrading (0.2 1 1)
	hex (116 117 119 118 188 189 191 190) (2 2 100) simpleGrading (1 1 1)
	hex (114 116 118 120 186 188 190 192) (2 2 100) simpleGrading (1 1 1)
	hex (115 117 116 114 187 189 188 186) (2 2 100) simpleGrading (1 1 1)
	hex (121 119 117 115 193 191 189 187) (2 2 100) simpleGrading (1 1 1)
	hex (120 118 119 121 192 190 191 193) (2 2 100) simpleGrading (1 1 1)
	hex (54 55 57 56 126 127 129 128) (2 2 2) simpleGrading (1 1 1)
	hex (52 54 56 58 124 126 128 130) (2 2 2) simpleGrading (1 1 1)
	hex (53 55 54 52 125 127 126 124) (2 2 2) simpleGrading (1 1 1)
	hex (59 57 55 53 131 129 127 125) (2 2 2) simpleGrading (1 1 1)
	hex (58 56 57 59 130 128 129 131) (2 2 2) simpleGrading (1 1 1)
	hex (50 52 58 60 122 124 130 132) (5 2 2) simpleGrading (0.2 1 1)
	hex (51 53 52 50 123 125 124 122) (5 2 2) simpleGrading (0.2 1 1)
	hex (61 59 53 51 133 131 125 123) (5 2 2) simpleGrading (0.2 1 1)
	hex (60 58 59 61 132 130 131 133) (5 2 2) simpleGrading (0.2 1 1)
	hex (126 127 129 128 198 199 201 200) (2 2 100) simpleGrading (1 1 1)
	hex (124 126 128 130 196 198 200 202) (2 2 100) simpleGrading (1 1 1)
	hex (125 127 126 124 197 199 198 196) (2 2 100) simpleGrading (1 1 1)
	hex (131 129 127 125 203 201 199 197) (2 2 100) simpleGrading (1 1 1)
	hex (130 128 129 131 202 200 201 203) (2 2 100) simpleGrading (1 1 1)
	hex (64 65 67 66 136 137 139 138) (2 2 2) simpleGrading (1 1 1)
	hex (62 64 66 68 134 136 138 140) (2 2 2) simpleGrading (1 1 1)
	hex (63 65 64 62 135 137 136 134) (2 2 2) simpleGrading (1 1 1)
	hex (69 67 65 63 141 139 137 135) (2 2 2) simpleGrading (1 1 1)
	hex (68 66 67 69 140 138 139 141) (2 2 2) simpleGrading (1 1 1)
	hex (60 62 68 70 132 134 140 142) (5 2 2) simpleGrading (0.2 1 1)
	hex (61 63 62 60 133 135 134 132) (5 2 2) simpleGrading (0.2 1 1)
	hex (71 69 63 61 143 141 135 133) (5 2 2) simpleGrading (0.2 1 1)
	hex (70 68 69 71 142 140 141 143) (5 2 2) simpleGrading (0.2 1 1)
	hex (136 137 139 138 208 209 211 210) (2 2 100) simpleGrading (1 1 1)
	hex (134 136 138 140 206 208 210 212) (2 2 100) simpleGrading (1 1 1)
	hex (135 137 136 134 207 209 208 206) (2 2 100) simpleGrading (1 1 1)
	hex (141 139 137 135 213 211 209 207) (2 2 100) simpleGrading (1 1 1)
	hex (140 138 139 141 212 210 211 213) (2 2 100) simpleGrading (1 1 1)

);

edges
(
	arc 2 3 (100.0 101.5 0)
	arc 3 9 (100.5 102.0 0)
	arc 9 8 (100.0 102.5 0)
	arc 8 2 (99.5 102.0 0)
	arc 74 75 (100.0 101.5 1)
	arc 75 81 (100.5 102.0 1)
	arc 81 80 (100.0 102.5 1)
	arc 80 74 (99.5 102.0 1)
	arc 12 13 (100.0 117.5 0)
	arc 13 19 (100.5 118.0 0)
	arc 19 18 (100.0 118.5 0)
	arc 18 12 (99.5 118.0 0)
	arc 84 85 (100.0 117.5 1)
	arc 85 91 (100.5 118.0 1)
	arc 91 90 (100.0 118.5 1)
	arc 90 84 (99.5 118.0 1)
	arc 22 23 (100.0 133.5 0)
	arc 23 29 (100.5 134.0 0)
	arc 29 28 (100.0 134.5 0)
	arc 28 22 (99.5 134.0 0)
	arc 94 95 (100.0 133.5 1)
	arc 95 101 (100.5 134.0 1)
	arc 101 100 (100.0 134.5 1)
	arc 100 94 (99.5 134.0 1)
	arc 32 33 (100.0 149.5 0)
	arc 33 39 (100.5 150.0 0)
	arc 39 38 (100.0 150.5 0)
	arc 38 32 (99.5 150.0 0)
	arc 104 105 (100.0 149.5 1)
	arc 105 111 (100.5 150.0 1)
	arc 111 110 (100.0 150.5 1)
	arc 110 104 (99.5 150.0 1)
	arc 42 43 (100.0 165.5 0)
	arc 43 49 (100.5 166.0 0)
	arc 49 48 (100.0 166.5 0)
	arc 48 42 (99.5 166.0 0)
	arc 114 115 (100.0 165.5 1)
	arc 115 121 (100.5 166.0 1)
	arc 121 120 (100.0 166.5 1)
	arc 120 114 (99.5 166.0 1)
	arc 52 53 (100.0 181.5 0)
	arc 53 59 (100.5 182.0 0)
	arc 59 58 (100.0 182.5 0)
	arc 58 52 (99.5 182.0 0)
	arc 124 125 (100.0 181.5 1)
	arc 125 131 (100.5 182.0 1)
	arc 131 130 (100.0 182.5 1)
	arc 130 124 (99.5 182.0 1)
	arc 62 63 (100.0 197.5 0)
	arc 63 69 (100.5 198.0 0)
	arc 69 68 (100.0 198.5 0)
	arc 68 62 (99.5 198.0 0)
	arc 134 135 (100.0 197.5 1)
	arc 135 141 (100.5 198.0 1)
	arc 141 140 (100.0 198.5 1)
	arc 140 134 (99.5 198.0 1)
	arc 146 147 (100.0 101.5 101)
	arc 147 153 (100.5 102.0 101)
	arc 153 152 (100.0 102.5 101)
	arc 152 146 (99.5 102.0 101)
	arc 156 157 (100.0 117.5 101)
	arc 157 163 (100.5 118.0 101)
	arc 163 162 (100.0 118.5 101)
	arc 162 156 (99.5 118.0 101)
	arc 166 167 (100.0 133.5 101)
	arc 167 173 (100.5 134.0 101)
	arc 173 172 (100.0 134.5 101)
	arc 172 166 (99.5 134.0 101)
	arc 176 177 (100.0 149.5 101)
	arc 177 183 (100.5 150.0 101)
	arc 183 182 (100.0 150.5 101)
	arc 182 176 (99.5 150.0 101)
	arc 186 187 (100.0 165.5 101)
	arc 187 193 (100.5 166.0 101)
	arc 193 192 (100.0 166.5 101)
	arc 192 186 (99.5 166.0 101)
	arc 196 197 (100.0 181.5 101)
	arc 197 203 (100.5 182.0 101)
	arc 203 202 (100.0 182.5 101)
	arc 202 196 (99.5 182.0 101)
	arc 206 207 (100.0 197.5 101)
	arc 207 213 (100.5 198.0 101)
	arc 213 212 (100.0 198.5 101)
	arc 212 206 (99.5 198.0 101)
);

patches
(
	patch bristle
	(
		(0 72 82 10)
		(11 83 73 1)
		(72 74 80 82)
		(73 75 74 72)
		(83 81 75 73)
		(82 80 81 83)
		(74 146 152 80)
		(75 147 146 74)
		(81 153 147 75)
		(80 152 153 81)
		(148 149 151 150)
		(146 148 150 152)
		(147 149 148 146)
		(153 151 149 147)
		(152 150 151 153)
		(10 82 92 20)
		(21 93 83 11)
		(82 84 90 92)
		(83 85 84 82)
		(93 91 85 83)
		(92 90 91 93)
		(84 156 162 90)
		(85 157 156 84)
		(91 163 157 85)
		(90 162 163 91)
		(158 159 161 160)
		(156 158 160 162)
		(157 159 158 156)
		(163 161 159 157)
		(162 160 161 163)
		(20 92 102 30)
		(31 103 93 21)
		(92 94 100 102)
		(93 95 94 92)
		(103 101 95 93)
		(102 100 101 103)
		(94 166 172 100)
		(95 167 166 94)
		(101 173 167 95)
		(100 172 173 101)
		(168 169 171 170)
		(166 168 170 172)
		(167 169 168 166)
		(173 171 169 167)
		(172 170 171 173)
		(30 102 112 40)
		(41 113 103 31)
		(102 104 110 112)
		(103 105 104 102)
		(113 111 105 103)
		(112 110 111 113)
		(104 176 182 110)
		(105 177 176 104)
		(111 183 177 105)
		(110 182 183 111)
		(178 179 181 180)
		(176 178 180 182)
		(177 179 178 176)
		(183 181 179 177)
		(182 180 181 183)
		(40 112 122 50)
		(51 123 113 41)
		(112 114 120 122)
		(113 115 114 112)
		(123 121 115 113)
		(122 120 121 123)
		(114 186 192 120)
		(115 187 186 114)
		(121 193 187 115)
		(120 192 193 121)
		(188 189 191 190)
		(186 188 190 192)
		(187 189 188 186)
		(193 191 189 187)
		(192 190 191 193)
		(50 122 132 60)
		(61 133 123 51)
		(122 124 130 132)
		(123 125 124 122)
		(133 131 125 123)
		(132 130 131 133)
		(124 196 202 130)
		(125 197 196 124)
		(131 203 197 125)
		(130 202 203 131)
		(198 199 201 200)
		(196 198 200 202)
		(197 199 198 196)
		(203 201 199 197)
		(202 200 201 203)
		(60 132 142 70)
		(71 143 133 61)
		(132 134 140 142)
		(133 135 134 132)
		(143 141 135 133)
		(142 140 141 143)
		(134 206 212 140)
		(135 207 206 134)
		(141 213 207 135)
		(140 212 213 141)
		(208 209 211 210)
		(206 208 210 212)
		(207 209 208 206)
		(213 211 209 207)
		(212 210 211 213)
		(0 1 73 72)
		(71 70 142 143)
	)

	patch plateFix
	(
		(6 7 5 4)
		(8 6 4 2)
		(2 4 5 3)
		(3 5 7 9)
		(9 7 6 8)
		(10 8 2 0)
		(0 2 3 1)
		(1 3 9 11)
		(11 9 8 10)
		(16 17 15 14)
		(18 16 14 12)
		(12 14 15 13)
		(13 15 17 19)
		(19 17 16 18)
		(20 18 12 10)
		(10 12 13 11)
		(11 13 19 21)
		(21 19 18 20)
		(26 27 25 24)
		(28 26 24 22)
		(22 24 25 23)
		(23 25 27 29)
		(29 27 26 28)
		(30 28 22 20)
		(20 22 23 21)
		(21 23 29 31)
		(31 29 28 30)
		(36 37 35 34)
		(38 36 34 32)
		(32 34 35 33)
		(33 35 37 39)
		(39 37 36 38)
		(40 38 32 30)
		(30 32 33 31)
		(31 33 39 41)
		(41 39 38 40)
		(46 47 45 44)
		(48 46 44 42)
		(42 44 45 43)
		(43 45 47 49)
		(49 47 46 48)
		(50 48 42 40)
		(40 42 43 41)
		(41 43 49 51)
		(51 49 48 50)
		(56 57 55 54)
		(58 56 54 52)
		(52 54 55 53)
		(53 55 57 59)
		(59 57 56 58)
		(60 58 52 50)
		(50 52 53 51)
		(51 53 59 61)
		(61 59 58 60)
		(66 67 65 64)
		(68 66 64 62)
		(62 64 65 63)
		(63 65 67 69)
		(69 67 66 68)
		(70 68 62 60)
		(60 62 63 61)
		(61 63 69 71)
		(71 69 68 70)
	)

);

mergePatchPairs
(
);


// ************************************************************************* //

