/*--------------------------------*- C++ -*----------------------------------*\
| =========                 |                                                 |
| \      /  F ield         | foam-extend: Open Source CFD                    |
|  \    /   O peration     | Version:     4.0                                |
|   \  /    A nd           | Web:         http://www.foam-extend.org         |
|    \/     M anipulation  |                                                 |
\*---------------------------------------------------------------------------*/
FoamFile
{
    version     2.0;
    format      ascii;
    class       dictionary;
    object      blockMeshDict;
}
// * * * * * * * * * * * * * * * * * * * * * * * * * * * * * * * * * * * * * //

convertToMeters 0.001;
vertices
(
	(0 0 0)      //0
	(2 0 0)      //1
	(0 7 0)      //2
	(2 7 0)      //3
	(0.6464 7.6464 0)      //4
	(1.3536 7.6464 0)      //5
	(0.8232 7.8232 0)      //6
	(1.1768 7.8232 0)      //7
	(0.8232 8.1768 0)      //8
	(1.1768 8.1768 0)      //9
	(0.6464 8.3536 0)      //10
	(1.3536 8.3536 0)      //11
	(0 9 0)      //12
	(2 9 0)      //13
	(0 16 0)      //14
	(2 16 0)      //15
	(0 23 0)      //16
	(2 23 0)      //17
	(0.6464 23.6464 0)      //18
	(1.3536 23.6464 0)      //19
	(0.8232 23.8232 0)      //20
	(1.1768 23.8232 0)      //21
	(0.8232 24.1768 0)      //22
	(1.1768 24.1768 0)      //23
	(0.6464 24.3536 0)      //24
	(1.3536 24.3536 0)      //25
	(0 25 0)      //26
	(2 25 0)      //27
	(0 32 0)      //28
	(2 32 0)      //29
	(0 39 0)      //30
	(2 39 0)      //31
	(0.6464 39.6464 0)      //32
	(1.3536 39.6464 0)      //33
	(0.8232 39.8232 0)      //34
	(1.1768 39.8232 0)      //35
	(0.8232 40.1768 0)      //36
	(1.1768 40.1768 0)      //37
	(0.6464 40.3536 0)      //38
	(1.3536 40.3536 0)      //39
	(0 41 0)      //40
	(2 41 0)      //41
	(0 48 0)      //42
	(2 48 0)      //43
	(0 55 0)      //44
	(2 55 0)      //45
	(0.6464 55.6464 0)      //46
	(1.3536 55.6464 0)      //47
	(0.8232 55.8232 0)      //48
	(1.1768 55.8232 0)      //49
	(0.8232 56.1768 0)      //50
	(1.1768 56.1768 0)      //51
	(0.6464 56.3536 0)      //52
	(1.3536 56.3536 0)      //53
	(0 57 0)      //54
	(2 57 0)      //55
	(0 64 0)      //56
	(2 64 0)      //57
	(0 71 0)      //58
	(2 71 0)      //59
	(0.6464 71.6464 0)      //60
	(1.3536 71.6464 0)      //61
	(0.8232 71.8232 0)      //62
	(1.1768 71.8232 0)      //63
	(0.8232 72.1768 0)      //64
	(1.1768 72.1768 0)      //65
	(0.6464 72.3536 0)      //66
	(1.3536 72.3536 0)      //67
	(0 73 0)      //68
	(2 73 0)      //69
	(0 80 0)      //70
	(2 80 0)      //71
	(0 87 0)      //72
	(2 87 0)      //73
	(0.6464 87.6464 0)      //74
	(1.3536 87.6464 0)      //75
	(0.8232 87.8232 0)      //76
	(1.1768 87.8232 0)      //77
	(0.8232 88.1768 0)      //78
	(1.1768 88.1768 0)      //79
	(0.6464 88.3536 0)      //80
	(1.3536 88.3536 0)      //81
	(0 89 0)      //82
	(2 89 0)      //83
	(0 96 0)      //84
	(2 96 0)      //85
	(0 103 0)      //86
	(2 103 0)      //87
	(0.6464 103.6464 0)      //88
	(1.3536 103.6464 0)      //89
	(0.8232 103.8232 0)      //90
	(1.1768 103.8232 0)      //91
	(0.8232 104.1768 0)      //92
	(1.1768 104.1768 0)      //93
	(0.6464 104.3536 0)      //94
	(1.3536 104.3536 0)      //95
	(0 105 0)      //96
	(2 105 0)      //97
	(0 112 0)      //98
	(2 112 0)      //99
	(0 0 2)      //100
	(2 0 2)      //101
	(0 7 2)      //102
	(2 7 2)      //103
	(0.6464 7.6464 2)      //104
	(1.3536 7.6464 2)      //105
	(0.8232 7.8232 2)      //106
	(1.1768 7.8232 2)      //107
	(0.8232 8.1768 2)      //108
	(1.1768 8.1768 2)      //109
	(0.6464 8.3536 2)      //110
	(1.3536 8.3536 2)      //111
	(0 9 2)      //112
	(2 9 2)      //113
	(0 16 2)      //114
	(2 16 2)      //115
	(0 23 2)      //116
	(2 23 2)      //117
	(0.6464 23.6464 2)      //118
	(1.3536 23.6464 2)      //119
	(0.8232 23.8232 2)      //120
	(1.1768 23.8232 2)      //121
	(0.8232 24.1768 2)      //122
	(1.1768 24.1768 2)      //123
	(0.6464 24.3536 2)      //124
	(1.3536 24.3536 2)      //125
	(0 25 2)      //126
	(2 25 2)      //127
	(0 32 2)      //128
	(2 32 2)      //129
	(0 39 2)      //130
	(2 39 2)      //131
	(0.6464 39.6464 2)      //132
	(1.3536 39.6464 2)      //133
	(0.8232 39.8232 2)      //134
	(1.1768 39.8232 2)      //135
	(0.8232 40.1768 2)      //136
	(1.1768 40.1768 2)      //137
	(0.6464 40.3536 2)      //138
	(1.3536 40.3536 2)      //139
	(0 41 2)      //140
	(2 41 2)      //141
	(0 48 2)      //142
	(2 48 2)      //143
	(0 55 2)      //144
	(2 55 2)      //145
	(0.6464 55.6464 2)      //146
	(1.3536 55.6464 2)      //147
	(0.8232 55.8232 2)      //148
	(1.1768 55.8232 2)      //149
	(0.8232 56.1768 2)      //150
	(1.1768 56.1768 2)      //151
	(0.6464 56.3536 2)      //152
	(1.3536 56.3536 2)      //153
	(0 57 2)      //154
	(2 57 2)      //155
	(0 64 2)      //156
	(2 64 2)      //157
	(0 71 2)      //158
	(2 71 2)      //159
	(0.6464 71.6464 2)      //160
	(1.3536 71.6464 2)      //161
	(0.8232 71.8232 2)      //162
	(1.1768 71.8232 2)      //163
	(0.8232 72.1768 2)      //164
	(1.1768 72.1768 2)      //165
	(0.6464 72.3536 2)      //166
	(1.3536 72.3536 2)      //167
	(0 73 2)      //168
	(2 73 2)      //169
	(0 80 2)      //170
	(2 80 2)      //171
	(0 87 2)      //172
	(2 87 2)      //173
	(0.6464 87.6464 2)      //174
	(1.3536 87.6464 2)      //175
	(0.8232 87.8232 2)      //176
	(1.1768 87.8232 2)      //177
	(0.8232 88.1768 2)      //178
	(1.1768 88.1768 2)      //179
	(0.6464 88.3536 2)      //180
	(1.3536 88.3536 2)      //181
	(0 89 2)      //182
	(2 89 2)      //183
	(0 96 2)      //184
	(2 96 2)      //185
	(0 103 2)      //186
	(2 103 2)      //187
	(0.6464 103.6464 2)      //188
	(1.3536 103.6464 2)      //189
	(0.8232 103.8232 2)      //190
	(1.1768 103.8232 2)      //191
	(0.8232 104.1768 2)      //192
	(1.1768 104.1768 2)      //193
	(0.6464 104.3536 2)      //194
	(1.3536 104.3536 2)      //195
	(0 105 2)      //196
	(2 105 2)      //197
	(0 112 2)      //198
	(2 112 2)      //199
	(0.6464 7.6464 102)      //200
	(1.3536 7.6464 102)      //201
	(0.8232 7.8232 102)      //202
	(1.1768 7.8232 102)      //203
	(0.8232 8.1768 102)      //204
	(1.1768 8.1768 102)      //205
	(0.6464 8.3536 102)      //206
	(1.3536 8.3536 102)      //207
	(0.6464 23.6464 102)      //208
	(1.3536 23.6464 102)      //209
	(0.8232 23.8232 102)      //210
	(1.1768 23.8232 102)      //211
	(0.8232 24.1768 102)      //212
	(1.1768 24.1768 102)      //213
	(0.6464 24.3536 102)      //214
	(1.3536 24.3536 102)      //215
	(0.6464 39.6464 102)      //216
	(1.3536 39.6464 102)      //217
	(0.8232 39.8232 102)      //218
	(1.1768 39.8232 102)      //219
	(0.8232 40.1768 102)      //220
	(1.1768 40.1768 102)      //221
	(0.6464 40.3536 102)      //222
	(1.3536 40.3536 102)      //223
	(0.6464 55.6464 102)      //224
	(1.3536 55.6464 102)      //225
	(0.8232 55.8232 102)      //226
	(1.1768 55.8232 102)      //227
	(0.8232 56.1768 102)      //228
	(1.1768 56.1768 102)      //229
	(0.6464 56.3536 102)      //230
	(1.3536 56.3536 102)      //231
	(0.6464 71.6464 102)      //232
	(1.3536 71.6464 102)      //233
	(0.8232 71.8232 102)      //234
	(1.1768 71.8232 102)      //235
	(0.8232 72.1768 102)      //236
	(1.1768 72.1768 102)      //237
	(0.6464 72.3536 102)      //238
	(1.3536 72.3536 102)      //239
	(0.6464 87.6464 102)      //240
	(1.3536 87.6464 102)      //241
	(0.8232 87.8232 102)      //242
	(1.1768 87.8232 102)      //243
	(0.8232 88.1768 102)      //244
	(1.1768 88.1768 102)      //245
	(0.6464 88.3536 102)      //246
	(1.3536 88.3536 102)      //247
	(0.6464 103.6464 102)      //248
	(1.3536 103.6464 102)      //249
	(0.8232 103.8232 102)      //250
	(1.1768 103.8232 102)      //251
	(0.8232 104.1768 102)      //252
	(1.1768 104.1768 102)      //253
	(0.6464 104.3536 102)      //254
	(1.3536 104.3536 102)      //255

);

blocks
(
	hex (0 1 3 2 100 101 103 102)(2 8 2) simpleGrading (1 1 1)
	hex (12 13 15 14 112 113 115 114)(2 8 2) simpleGrading (1 1 1)
	hex (14 15 17 16 114 115 117 116)(2 8 2) simpleGrading (1 1 1)
	hex (26 27 29 28 126 127 129 128)(2 8 2) simpleGrading (1 1 1)
	hex (28 29 31 30 128 129 131 130)(2 8 2) simpleGrading (1 1 1)
	hex (40 41 43 42 140 141 143 142)(2 8 2) simpleGrading (1 1 1)
	hex (42 43 45 44 142 143 145 144)(2 8 2) simpleGrading (1 1 1)
	hex (54 55 57 56 154 155 157 156)(2 8 2) simpleGrading (1 1 1)
	hex (56 57 59 58 156 157 159 158)(2 8 2) simpleGrading (1 1 1)
	hex (68 69 71 70 168 169 171 170)(2 8 2) simpleGrading (1 1 1)
	hex (70 71 73 72 170 171 173 172)(2 8 2) simpleGrading (1 1 1)
	hex (82 83 85 84 182 183 185 184)(2 8 2) simpleGrading (1 1 1)
	hex (84 85 87 86 184 185 187 186)(2 8 2) simpleGrading (1 1 1)
	hex (96 97 99 98 196 197 199 198)(2 8 2) simpleGrading (1 1 1)
	hex (6 7 9 8 106 107 109 108) (2 2 2) simpleGrading (1 1 1)
	hex (4 6 8 10 104 106 108 110) (2 2 2) simpleGrading (1 1 1)
	hex (5 7 6 4 105 107 106 104) (2 2 2) simpleGrading (1 1 1)
	hex (11 9 7 5 111 109 107 105) (2 2 2) simpleGrading (1 1 1)
	hex (10 8 9 11 110 108 109 111) (2 2 2) simpleGrading (1 1 1)
	hex (2 4 10 12 102 104 110 112) (2 2 2) simpleGrading (1 1 1)
	hex (3 5 4 2 103 105 104 102) (2 2 2) simpleGrading (1 1 1)
	hex (13 11 5 3 113 111 105 103) (2 2 2) simpleGrading (1 1 1)
	hex (12 10 11 13 112 110 111 113) (2 2 2) simpleGrading (1 1 1)
	hex (106 107 109 108 202 203 205 204) (2 2 100) simpleGrading (1 1 1)
	hex (104 106 108 110 200 202 204 206) (2 2 100) simpleGrading (1 1 1)
	hex (105 107 106 104 201 203 202 200) (2 2 100) simpleGrading (1 1 1)
	hex (111 109 107 105 207 205 203 201) (2 2 100) simpleGrading (1 1 1)
	hex (110 108 109 111 206 204 205 207) (2 2 100) simpleGrading (1 1 1)
	hex (20 21 23 22 120 121 123 122) (2 2 2) simpleGrading (1 1 1)
	hex (18 20 22 24 118 120 122 124) (2 2 2) simpleGrading (1 1 1)
	hex (19 21 20 18 119 121 120 118) (2 2 2) simpleGrading (1 1 1)
	hex (25 23 21 19 125 123 121 119) (2 2 2) simpleGrading (1 1 1)
	hex (24 22 23 25 124 122 123 125) (2 2 2) simpleGrading (1 1 1)
	hex (16 18 24 26 116 118 124 126) (2 2 2) simpleGrading (1 1 1)
	hex (17 19 18 16 117 119 118 116) (2 2 2) simpleGrading (1 1 1)
	hex (27 25 19 17 127 125 119 117) (2 2 2) simpleGrading (1 1 1)
	hex (26 24 25 27 126 124 125 127) (2 2 2) simpleGrading (1 1 1)
	hex (120 121 123 122 210 211 213 212) (2 2 100) simpleGrading (1 1 1)
	hex (118 120 122 124 208 210 212 214) (2 2 100) simpleGrading (1 1 1)
	hex (119 121 120 118 209 211 210 208) (2 2 100) simpleGrading (1 1 1)
	hex (125 123 121 119 215 213 211 209) (2 2 100) simpleGrading (1 1 1)
	hex (124 122 123 125 214 212 213 215) (2 2 100) simpleGrading (1 1 1)
	hex (34 35 37 36 134 135 137 136) (2 2 2) simpleGrading (1 1 1)
	hex (32 34 36 38 132 134 136 138) (2 2 2) simpleGrading (1 1 1)
	hex (33 35 34 32 133 135 134 132) (2 2 2) simpleGrading (1 1 1)
	hex (39 37 35 33 139 137 135 133) (2 2 2) simpleGrading (1 1 1)
	hex (38 36 37 39 138 136 137 139) (2 2 2) simpleGrading (1 1 1)
	hex (30 32 38 40 130 132 138 140) (2 2 2) simpleGrading (1 1 1)
	hex (31 33 32 30 131 133 132 130) (2 2 2) simpleGrading (1 1 1)
	hex (41 39 33 31 141 139 133 131) (2 2 2) simpleGrading (1 1 1)
	hex (40 38 39 41 140 138 139 141) (2 2 2) simpleGrading (1 1 1)
	hex (134 135 137 136 218 219 221 220) (2 2 100) simpleGrading (1 1 1)
	hex (132 134 136 138 216 218 220 222) (2 2 100) simpleGrading (1 1 1)
	hex (133 135 134 132 217 219 218 216) (2 2 100) simpleGrading (1 1 1)
	hex (139 137 135 133 223 221 219 217) (2 2 100) simpleGrading (1 1 1)
	hex (138 136 137 139 222 220 221 223) (2 2 100) simpleGrading (1 1 1)
	hex (48 49 51 50 148 149 151 150) (2 2 2) simpleGrading (1 1 1)
	hex (46 48 50 52 146 148 150 152) (2 2 2) simpleGrading (1 1 1)
	hex (47 49 48 46 147 149 148 146) (2 2 2) simpleGrading (1 1 1)
	hex (53 51 49 47 153 151 149 147) (2 2 2) simpleGrading (1 1 1)
	hex (52 50 51 53 152 150 151 153) (2 2 2) simpleGrading (1 1 1)
	hex (44 46 52 54 144 146 152 154) (2 2 2) simpleGrading (1 1 1)
	hex (45 47 46 44 145 147 146 144) (2 2 2) simpleGrading (1 1 1)
	hex (55 53 47 45 155 153 147 145) (2 2 2) simpleGrading (1 1 1)
	hex (54 52 53 55 154 152 153 155) (2 2 2) simpleGrading (1 1 1)
	hex (148 149 151 150 226 227 229 228) (2 2 100) simpleGrading (1 1 1)
	hex (146 148 150 152 224 226 228 230) (2 2 100) simpleGrading (1 1 1)
	hex (147 149 148 146 225 227 226 224) (2 2 100) simpleGrading (1 1 1)
	hex (153 151 149 147 231 229 227 225) (2 2 100) simpleGrading (1 1 1)
	hex (152 150 151 153 230 228 229 231) (2 2 100) simpleGrading (1 1 1)
	hex (62 63 65 64 162 163 165 164) (2 2 2) simpleGrading (1 1 1)
	hex (60 62 64 66 160 162 164 166) (2 2 2) simpleGrading (1 1 1)
	hex (61 63 62 60 161 163 162 160) (2 2 2) simpleGrading (1 1 1)
	hex (67 65 63 61 167 165 163 161) (2 2 2) simpleGrading (1 1 1)
	hex (66 64 65 67 166 164 165 167) (2 2 2) simpleGrading (1 1 1)
	hex (58 60 66 68 158 160 166 168) (2 2 2) simpleGrading (1 1 1)
	hex (59 61 60 58 159 161 160 158) (2 2 2) simpleGrading (1 1 1)
	hex (69 67 61 59 169 167 161 159) (2 2 2) simpleGrading (1 1 1)
	hex (68 66 67 69 168 166 167 169) (2 2 2) simpleGrading (1 1 1)
	hex (162 163 165 164 234 235 237 236) (2 2 100) simpleGrading (1 1 1)
	hex (160 162 164 166 232 234 236 238) (2 2 100) simpleGrading (1 1 1)
	hex (161 163 162 160 233 235 234 232) (2 2 100) simpleGrading (1 1 1)
	hex (167 165 163 161 239 237 235 233) (2 2 100) simpleGrading (1 1 1)
	hex (166 164 165 167 238 236 237 239) (2 2 100) simpleGrading (1 1 1)
	hex (76 77 79 78 176 177 179 178) (2 2 2) simpleGrading (1 1 1)
	hex (74 76 78 80 174 176 178 180) (2 2 2) simpleGrading (1 1 1)
	hex (75 77 76 74 175 177 176 174) (2 2 2) simpleGrading (1 1 1)
	hex (81 79 77 75 181 179 177 175) (2 2 2) simpleGrading (1 1 1)
	hex (80 78 79 81 180 178 179 181) (2 2 2) simpleGrading (1 1 1)
	hex (72 74 80 82 172 174 180 182) (2 2 2) simpleGrading (1 1 1)
	hex (73 75 74 72 173 175 174 172) (2 2 2) simpleGrading (1 1 1)
	hex (83 81 75 73 183 181 175 173) (2 2 2) simpleGrading (1 1 1)
	hex (82 80 81 83 182 180 181 183) (2 2 2) simpleGrading (1 1 1)
	hex (176 177 179 178 242 243 245 244) (2 2 100) simpleGrading (1 1 1)
	hex (174 176 178 180 240 242 244 246) (2 2 100) simpleGrading (1 1 1)
	hex (175 177 176 174 241 243 242 240) (2 2 100) simpleGrading (1 1 1)
	hex (181 179 177 175 247 245 243 241) (2 2 100) simpleGrading (1 1 1)
	hex (180 178 179 181 246 244 245 247) (2 2 100) simpleGrading (1 1 1)
	hex (90 91 93 92 190 191 193 192) (2 2 2) simpleGrading (1 1 1)
	hex (88 90 92 94 188 190 192 194) (2 2 2) simpleGrading (1 1 1)
	hex (89 91 90 88 189 191 190 188) (2 2 2) simpleGrading (1 1 1)
	hex (95 93 91 89 195 193 191 189) (2 2 2) simpleGrading (1 1 1)
	hex (94 92 93 95 194 192 193 195) (2 2 2) simpleGrading (1 1 1)
	hex (86 88 94 96 186 188 194 196) (2 2 2) simpleGrading (1 1 1)
	hex (87 89 88 86 187 189 188 186) (2 2 2) simpleGrading (1 1 1)
	hex (97 95 89 87 197 195 189 187) (2 2 2) simpleGrading (1 1 1)
	hex (96 94 95 97 196 194 195 197) (2 2 2) simpleGrading (1 1 1)
	hex (190 191 193 192 250 251 253 252) (2 2 100) simpleGrading (1 1 1)
	hex (188 190 192 194 248 250 252 254) (2 2 100) simpleGrading (1 1 1)
	hex (189 191 190 188 249 251 250 248) (2 2 100) simpleGrading (1 1 1)
	hex (195 193 191 189 255 253 251 249) (2 2 100) simpleGrading (1 1 1)
	hex (194 192 193 195 254 252 253 255) (2 2 100) simpleGrading (1 1 1)

);

edges
(
	arc 4 5 (1.0 7.5 0)
	arc 5 11 (1.5 8.0 0)
	arc 11 10 (1.0 8.5 0)
	arc 10 4 (0.5 8.0 0)
	arc 104 105 (1.0 7.5 2)
	arc 105 111 (1.5 8.0 2)
	arc 111 110 (1.0 8.5 2)
	arc 110 104 (0.5 8.0 2)
	arc 18 19 (1.0 23.5 0)
	arc 19 25 (1.5 24.0 0)
	arc 25 24 (1.0 24.5 0)
	arc 24 18 (0.5 24.0 0)
	arc 118 119 (1.0 23.5 2)
	arc 119 125 (1.5 24.0 2)
	arc 125 124 (1.0 24.5 2)
	arc 124 118 (0.5 24.0 2)
	arc 32 33 (1.0 39.5 0)
	arc 33 39 (1.5 40.0 0)
	arc 39 38 (1.0 40.5 0)
	arc 38 32 (0.5 40.0 0)
	arc 132 133 (1.0 39.5 2)
	arc 133 139 (1.5 40.0 2)
	arc 139 138 (1.0 40.5 2)
	arc 138 132 (0.5 40.0 2)
	arc 46 47 (1.0 55.5 0)
	arc 47 53 (1.5 56.0 0)
	arc 53 52 (1.0 56.5 0)
	arc 52 46 (0.5 56.0 0)
	arc 146 147 (1.0 55.5 2)
	arc 147 153 (1.5 56.0 2)
	arc 153 152 (1.0 56.5 2)
	arc 152 146 (0.5 56.0 2)
	arc 60 61 (1.0 71.5 0)
	arc 61 67 (1.5 72.0 0)
	arc 67 66 (1.0 72.5 0)
	arc 66 60 (0.5 72.0 0)
	arc 160 161 (1.0 71.5 2)
	arc 161 167 (1.5 72.0 2)
	arc 167 166 (1.0 72.5 2)
	arc 166 160 (0.5 72.0 2)
	arc 74 75 (1.0 87.5 0)
	arc 75 81 (1.5 88.0 0)
	arc 81 80 (1.0 88.5 0)
	arc 80 74 (0.5 88.0 0)
	arc 174 175 (1.0 87.5 2)
	arc 175 181 (1.5 88.0 2)
	arc 181 180 (1.0 88.5 2)
	arc 180 174 (0.5 88.0 2)
	arc 88 89 (1.0 103.5 0)
	arc 89 95 (1.5 104.0 0)
	arc 95 94 (1.0 104.5 0)
	arc 94 88 (0.5 104.0 0)
	arc 188 189 (1.0 103.5 2)
	arc 189 195 (1.5 104.0 2)
	arc 195 194 (1.0 104.5 2)
	arc 194 188 (0.5 104.0 2)
	arc 200 201 (1.0 7.5 102)
	arc 201 207 (1.5 8.0 102)
	arc 207 206 (1.0 8.5 102)
	arc 206 200 (0.5 8.0 102)
	arc 208 209 (1.0 23.5 102)
	arc 209 215 (1.5 24.0 102)
	arc 215 214 (1.0 24.5 102)
	arc 214 208 (0.5 24.0 102)
	arc 216 217 (1.0 39.5 102)
	arc 217 223 (1.5 40.0 102)
	arc 223 222 (1.0 40.5 102)
	arc 222 216 (0.5 40.0 102)
	arc 224 225 (1.0 55.5 102)
	arc 225 231 (1.5 56.0 102)
	arc 231 230 (1.0 56.5 102)
	arc 230 224 (0.5 56.0 102)
	arc 232 233 (1.0 71.5 102)
	arc 233 239 (1.5 72.0 102)
	arc 239 238 (1.0 72.5 102)
	arc 238 232 (0.5 72.0 102)
	arc 240 241 (1.0 87.5 102)
	arc 241 247 (1.5 88.0 102)
	arc 247 246 (1.0 88.5 102)
	arc 246 240 (0.5 88.0 102)
	arc 248 249 (1.0 103.5 102)
	arc 249 255 (1.5 104.0 102)
	arc 255 254 (1.0 104.5 102)
	arc 254 248 (0.5 104.0 102)
);

patches
(
	patch bristle_interFSI
	(
		(0 2 102 100)
		(2 12 112 102)
		(12 14 114 112)
		(1 101 103 3)
		(3 103 113 13)
		(13 113 115 15)
		(100 102 103 101)
		(112 114 115 113)
		(112 110 104 102)
		(102 104 105 103)
		(103 105 111 113)
		(113 111 110 112)
		(14 16 116 114)
		(16 26 126 116)
		(26 28 128 126)
		(15 115 117 17)
		(17 117 127 27)
		(27 127 129 29)
		(114 116 117 115)
		(126 128 129 127)
		(126 124 118 116)
		(116 118 119 117)
		(117 119 125 127)
		(127 125 124 126)
		(28 30 130 128)
		(30 40 140 130)
		(40 42 142 140)
		(29 129 131 31)
		(31 131 141 41)
		(41 141 143 43)
		(128 130 131 129)
		(140 142 143 141)
		(140 138 132 130)
		(130 132 133 131)
		(131 133 139 141)
		(141 139 138 140)
		(42 44 144 142)
		(44 54 154 144)
		(54 56 156 154)
		(43 143 145 45)
		(45 145 155 55)
		(55 155 157 57)
		(142 144 145 143)
		(154 156 157 155)
		(154 152 146 144)
		(144 146 147 145)
		(145 147 153 155)
		(155 153 152 154)
		(56 58 158 156)
		(58 68 168 158)
		(68 70 170 168)
		(57 157 159 59)
		(59 159 169 69)
		(69 169 171 71)
		(156 158 159 157)
		(168 170 171 169)
		(168 166 160 158)
		(158 160 161 159)
		(159 161 167 169)
		(169 167 166 168)
		(70 72 172 170)
		(72 82 182 172)
		(82 84 184 182)
		(71 171 173 73)
		(73 173 183 83)
		(83 183 185 85)
		(170 172 173 171)
		(182 184 185 183)
		(182 180 174 172)
		(172 174 175 173)
		(173 175 181 183)
		(183 181 180 182)
		(84 86 186 184)
		(86 96 196 186)
		(96 98 198 196)
		(85 185 187 87)
		(87 187 197 97)
		(97 197 199 99)
		(184 186 187 185)
		(196 198 199 197)
		(196 194 188 186)
		(186 188 189 187)
		(187 189 195 197)
		(197 195 194 196)
		(1 0 100 101)
		(98 99 199 198)
		(104 200 206 110)
		(105 201 200 104)
		(111 207 201 105)
		(110 206 207 111)
		(202 203 205 204)
		(200 202 204 206)
		(201 203 202 200)
		(207 205 203 201)
		(206 204 205 207)
		(118 208 214 124)
		(119 209 208 118)
		(125 215 209 119)
		(124 214 215 125)
		(210 211 213 212)
		(208 210 212 214)
		(209 211 210 208)
		(215 213 211 209)
		(214 212 213 215)
		(132 216 222 138)
		(133 217 216 132)
		(139 223 217 133)
		(138 222 223 139)
		(218 219 221 220)
		(216 218 220 222)
		(217 219 218 216)
		(223 221 219 217)
		(222 220 221 223)
		(146 224 230 152)
		(147 225 224 146)
		(153 231 225 147)
		(152 230 231 153)
		(226 227 229 228)
		(224 226 228 230)
		(225 227 226 224)
		(231 229 227 225)
		(230 228 229 231)
		(160 232 238 166)
		(161 233 232 160)
		(167 239 233 161)
		(166 238 239 167)
		(234 235 237 236)
		(232 234 236 238)
		(233 235 234 232)
		(239 237 235 233)
		(238 236 237 239)
		(174 240 246 180)
		(175 241 240 174)
		(181 247 241 175)
		(180 246 247 181)
		(242 243 245 244)
		(240 242 244 246)
		(241 243 242 240)
		(247 245 243 241)
		(246 244 245 247)
		(188 248 254 194)
		(189 249 248 188)
		(195 255 249 189)
		(194 254 255 195)
		(250 251 253 252)
		(248 250 252 254)
		(249 251 250 248)
		(255 253 251 249)
		(254 252 253 255)
	)

	patch plateFix
	(
		(0 1 3 2)
		(2 4 10 12)
		(3 5 4 2 )
		(13 11 5 3)
		(12 10 11 13)
		(12 13 15 14)
		(14 15 17 16)
		(16 18 24 26)
		(17 19 18 16 )
		(27 25 19 17)
		(26 24 25 27)
		(26 27 29 28)
		(28 29 31 30)
		(30 32 38 40)
		(31 33 32 30 )
		(41 39 33 31)
		(40 38 39 41)
		(40 41 43 42)
		(42 43 45 44)
		(44 46 52 54)
		(45 47 46 44 )
		(55 53 47 45)
		(54 52 53 55)
		(54 55 57 56)
		(56 57 59 58)
		(58 60 66 68)
		(59 61 60 58 )
		(69 67 61 59)
		(68 66 67 69)
		(68 69 71 70)
		(70 71 73 72)
		(72 74 80 82)
		(73 75 74 72 )
		(83 81 75 73)
		(82 80 81 83)
		(82 83 85 84)
		(84 85 87 86)
		(86 88 94 96)
		(87 89 88 86 )
		(97 95 89 87)
		(96 94 95 97)
		(96 97 99 98)
		(8 9 7 6)
		(10 8 6 4)
		(4 6 7 5)
		(5 7 9 11)
		(11 9 8 10)
		(22 23 21 20)
		(24 22 20 18)
		(18 20 21 19)
		(19 21 23 25)
		(25 23 22 24)
		(36 37 35 34)
		(38 36 34 32)
		(32 34 35 33)
		(33 35 37 39)
		(39 37 36 38)
		(50 51 49 48)
		(52 50 48 46)
		(46 48 49 47)
		(47 49 51 53)
		(53 51 50 52)
		(64 65 63 62)
		(66 64 62 60)
		(60 62 63 61)
		(61 63 65 67)
		(67 65 64 66)
		(78 79 77 76)
		(80 78 76 74)
		(74 76 77 75)
		(75 77 79 81)
		(81 79 78 80)
		(92 93 91 90)
		(94 92 90 88)
		(88 90 91 89)
		(89 91 93 95)
		(95 93 92 94)
	)

);

mergePatchPairs
(
);


// ************************************************************************* //

