/*--------------------------------*- C++ -*----------------------------------*\
| =========                 |                                                 |
| \      /  F ield         | foam-extend: Open Source CFD                    |
|  \    /   O peration     | Version:     4.0                                |
|   \  /    A nd           | Web:         http://www.foam-extend.org         |
|    \/     M anipulation  |                                                 |
\*---------------------------------------------------------------------------*/
FoamFile
{
    version     2.0;
    format      ascii;
    class       dictionary;
    object      blockMeshDict;
}
// * * * * * * * * * * * * * * * * * * * * * * * * * * * * * * * * * * * * * //

convertToMeters 0.001;
vertices
(
	(823.2233 823.2233 0)      //0
	(1176.7767 823.2233 0)      //1
	(1176.7767 1176.7767 0)      //2
	(823.2233 1176.7767 0)      //3
	(911.6117 911.6117 0)      //4
	(1088.3883 911.6117 0)      //5
	(1088.3883 1088.3883 0)      //6
	(911.6117 1088.3883 0)      //7

	(823.2233 823.2233 1500)      //8
	(1176.7767 823.2233 1500)      //9
	(1176.7767 1176.7767 1500)      //10
	(823.2233 1176.7767 1500)      //11
	(911.6117 911.6117 1500)      //12
	(1088.3883 911.6117 1500)      //13
	(1088.3883 1088.3883 1500)      //14
	(911.6117 1088.3883 1500)      //15

);

blocks
(
	hex (0 4 7 3 8 12 15 11) (5 5 10) simpleGrading (1 1 1)
	hex (0 1 5 4 8 9 13 12) (5 5 10) simpleGrading (1 1 1)
	hex (5 1 2 6 13 9 10 14) (5 5 10) simpleGrading (1 1 1)
	hex (7 6 2 3 15 14 10 11) (5 5 10) simpleGrading (1 1 1)
	hex (4 5 6 7 12 13 14 15) (5 5 10) simpleGrading (1 1 1)

);

edges
(
	arc 0 1 (1000.0 750.0 0)
	arc 1 2 (1250.0 1000.0 0)
	arc 2 3 (1000.0 1250.0 0)
	arc 3 0 (750.0 1000.0 0)
	arc 8 9 (1000.0 750.0 1500)
	arc 9 10 (1250.0 1000.0 1500)
	arc 10 11 (1000.0 1250.0 1500)
	arc 11 8 (750.0 1000.0 1500)
);

patches
(
	patch bristle
	(
		(12 13 14 15)
		(8 12 15 11)
		(8 9 13 12)
		(13 9 10 14)
		(15 14 10 11)
		(0 1 9 8)
		(1 2 10 9)
		(2 3 11 10)
		(3 0 8 11)
	)

	patch plateFix
	(
		(4 5 6 7)
		(0 4 7 3)
		(0 1 5 4)
		(5 1 2 6)
		(7 6 2 3)
	)

);

mergePatchPairs
(
);


// ************************************************************************* //

