/*--------------------------------*- C++ -*----------------------------------*\
| =========                 |                                                 |
| \      /  F ield         | foam-extend: Open Source CFD                    |
|  \    /   O peration     | Version:     4.0                                |
|   \  /    A nd           | Web:         http://www.foam-extend.org         |
|    \/     M anipulation  |                                                 |
\*---------------------------------------------------------------------------*/
FoamFile
{
    version     2.0;
    format      ascii;
    class       dictionary;
    object      blockMeshDict;
}
// * * * * * * * * * * * * * * * * * * * * * * * * * * * * * * * * * * * * * //

convertToMeters 0.001;
vertices
(
	(44.5 61.5 0)      //0
	(55.5 61.5 0)      //1
	(49.6464 66.6464 0)      //2
	(50.3536 66.6464 0)      //3
	(49.8232 66.8232 0)      //4
	(50.1768 66.8232 0)      //5
	(49.8232 67.1768 0)      //6
	(50.1768 67.1768 0)      //7
	(49.6464 67.3536 0)      //8
	(50.3536 67.3536 0)      //9
	(44.5 72.5 0)      //10
	(55.5 72.5 0)      //11
	(49.6464 77.6464 0)      //12
	(50.3536 77.6464 0)      //13
	(49.8232 77.8232 0)      //14
	(50.1768 77.8232 0)      //15
	(49.8232 78.1768 0)      //16
	(50.1768 78.1768 0)      //17
	(49.6464 78.3536 0)      //18
	(50.3536 78.3536 0)      //19
	(44.5 83.5 0)      //20
	(55.5 83.5 0)      //21
	(49.6464 88.6464 0)      //22
	(50.3536 88.6464 0)      //23
	(49.8232 88.8232 0)      //24
	(50.1768 88.8232 0)      //25
	(49.8232 89.1768 0)      //26
	(50.1768 89.1768 0)      //27
	(49.6464 89.3536 0)      //28
	(50.3536 89.3536 0)      //29
	(44.5 94.5 0)      //30
	(55.5 94.5 0)      //31
	(49.6464 99.6464 0)      //32
	(50.3536 99.6464 0)      //33
	(49.8232 99.8232 0)      //34
	(50.1768 99.8232 0)      //35
	(49.8232 100.1768 0)      //36
	(50.1768 100.1768 0)      //37
	(49.6464 100.3536 0)      //38
	(50.3536 100.3536 0)      //39
	(44.5 105.5 0)      //40
	(55.5 105.5 0)      //41
	(49.6464 110.6464 0)      //42
	(50.3536 110.6464 0)      //43
	(49.8232 110.8232 0)      //44
	(50.1768 110.8232 0)      //45
	(49.8232 111.1768 0)      //46
	(50.1768 111.1768 0)      //47
	(49.6464 111.3536 0)      //48
	(50.3536 111.3536 0)      //49
	(44.5 116.5 0)      //50
	(55.5 116.5 0)      //51
	(49.6464 121.6464 0)      //52
	(50.3536 121.6464 0)      //53
	(49.8232 121.8232 0)      //54
	(50.1768 121.8232 0)      //55
	(49.8232 122.1768 0)      //56
	(50.1768 122.1768 0)      //57
	(49.6464 122.3536 0)      //58
	(50.3536 122.3536 0)      //59
	(44.5 127.5 0)      //60
	(55.5 127.5 0)      //61
	(49.6464 132.6464 0)      //62
	(50.3536 132.6464 0)      //63
	(49.8232 132.8232 0)      //64
	(50.1768 132.8232 0)      //65
	(49.8232 133.1768 0)      //66
	(50.1768 133.1768 0)      //67
	(49.6464 133.3536 0)      //68
	(50.3536 133.3536 0)      //69
	(44.5 138.5 0)      //70
	(55.5 138.5 0)      //71
	(44.5 61.5 11)      //72
	(55.5 61.5 11)      //73
	(49.6464 66.6464 11)      //74
	(50.3536 66.6464 11)      //75
	(49.8232 66.8232 11)      //76
	(50.1768 66.8232 11)      //77
	(49.8232 67.1768 11)      //78
	(50.1768 67.1768 11)      //79
	(49.6464 67.3536 11)      //80
	(50.3536 67.3536 11)      //81
	(44.5 72.5 11)      //82
	(55.5 72.5 11)      //83
	(49.6464 77.6464 11)      //84
	(50.3536 77.6464 11)      //85
	(49.8232 77.8232 11)      //86
	(50.1768 77.8232 11)      //87
	(49.8232 78.1768 11)      //88
	(50.1768 78.1768 11)      //89
	(49.6464 78.3536 11)      //90
	(50.3536 78.3536 11)      //91
	(44.5 83.5 11)      //92
	(55.5 83.5 11)      //93
	(49.6464 88.6464 11)      //94
	(50.3536 88.6464 11)      //95
	(49.8232 88.8232 11)      //96
	(50.1768 88.8232 11)      //97
	(49.8232 89.1768 11)      //98
	(50.1768 89.1768 11)      //99
	(49.6464 89.3536 11)      //100
	(50.3536 89.3536 11)      //101
	(44.5 94.5 11)      //102
	(55.5 94.5 11)      //103
	(49.6464 99.6464 11)      //104
	(50.3536 99.6464 11)      //105
	(49.8232 99.8232 11)      //106
	(50.1768 99.8232 11)      //107
	(49.8232 100.1768 11)      //108
	(50.1768 100.1768 11)      //109
	(49.6464 100.3536 11)      //110
	(50.3536 100.3536 11)      //111
	(44.5 105.5 11)      //112
	(55.5 105.5 11)      //113
	(49.6464 110.6464 11)      //114
	(50.3536 110.6464 11)      //115
	(49.8232 110.8232 11)      //116
	(50.1768 110.8232 11)      //117
	(49.8232 111.1768 11)      //118
	(50.1768 111.1768 11)      //119
	(49.6464 111.3536 11)      //120
	(50.3536 111.3536 11)      //121
	(44.5 116.5 11)      //122
	(55.5 116.5 11)      //123
	(49.6464 121.6464 11)      //124
	(50.3536 121.6464 11)      //125
	(49.8232 121.8232 11)      //126
	(50.1768 121.8232 11)      //127
	(49.8232 122.1768 11)      //128
	(50.1768 122.1768 11)      //129
	(49.6464 122.3536 11)      //130
	(50.3536 122.3536 11)      //131
	(44.5 127.5 11)      //132
	(55.5 127.5 11)      //133
	(49.6464 132.6464 11)      //134
	(50.3536 132.6464 11)      //135
	(49.8232 132.8232 11)      //136
	(50.1768 132.8232 11)      //137
	(49.8232 133.1768 11)      //138
	(50.1768 133.1768 11)      //139
	(49.6464 133.3536 11)      //140
	(50.3536 133.3536 11)      //141
	(44.5 138.5 11)      //142
	(55.5 138.5 11)      //143
	(44.5 61.5 91)      //144
	(55.5 61.5 91)      //145
	(49.6464 66.6464 91)      //146
	(50.3536 66.6464 91)      //147
	(49.8232 66.8232 91)      //148
	(50.1768 66.8232 91)      //149
	(49.8232 67.1768 91)      //150
	(50.1768 67.1768 91)      //151
	(49.6464 67.3536 91)      //152
	(50.3536 67.3536 91)      //153
	(44.5 72.5 91)      //154
	(55.5 72.5 91)      //155
	(49.6464 77.6464 91)      //156
	(50.3536 77.6464 91)      //157
	(49.8232 77.8232 91)      //158
	(50.1768 77.8232 91)      //159
	(49.8232 78.1768 91)      //160
	(50.1768 78.1768 91)      //161
	(49.6464 78.3536 91)      //162
	(50.3536 78.3536 91)      //163
	(44.5 83.5 91)      //164
	(55.5 83.5 91)      //165
	(49.6464 88.6464 91)      //166
	(50.3536 88.6464 91)      //167
	(49.8232 88.8232 91)      //168
	(50.1768 88.8232 91)      //169
	(49.8232 89.1768 91)      //170
	(50.1768 89.1768 91)      //171
	(49.6464 89.3536 91)      //172
	(50.3536 89.3536 91)      //173
	(44.5 94.5 91)      //174
	(55.5 94.5 91)      //175
	(49.6464 99.6464 91)      //176
	(50.3536 99.6464 91)      //177
	(49.8232 99.8232 91)      //178
	(50.1768 99.8232 91)      //179
	(49.8232 100.1768 91)      //180
	(50.1768 100.1768 91)      //181
	(49.6464 100.3536 91)      //182
	(50.3536 100.3536 91)      //183
	(44.5 105.5 91)      //184
	(55.5 105.5 91)      //185
	(49.6464 110.6464 91)      //186
	(50.3536 110.6464 91)      //187
	(49.8232 110.8232 91)      //188
	(50.1768 110.8232 91)      //189
	(49.8232 111.1768 91)      //190
	(50.1768 111.1768 91)      //191
	(49.6464 111.3536 91)      //192
	(50.3536 111.3536 91)      //193
	(44.5 116.5 91)      //194
	(55.5 116.5 91)      //195
	(49.6464 121.6464 91)      //196
	(50.3536 121.6464 91)      //197
	(49.8232 121.8232 91)      //198
	(50.1768 121.8232 91)      //199
	(49.8232 122.1768 91)      //200
	(50.1768 122.1768 91)      //201
	(49.6464 122.3536 91)      //202
	(50.3536 122.3536 91)      //203
	(44.5 127.5 91)      //204
	(55.5 127.5 91)      //205
	(49.6464 132.6464 91)      //206
	(50.3536 132.6464 91)      //207
	(49.8232 132.8232 91)      //208
	(50.1768 132.8232 91)      //209
	(49.8232 133.1768 91)      //210
	(50.1768 133.1768 91)      //211
	(49.6464 133.3536 91)      //212
	(50.3536 133.3536 91)      //213
	(44.5 138.5 91)      //214
	(55.5 138.5 91)      //215

);

blocks
(
	hex (4 5 7 6 76 77 79 78) (4 4 16) simpleGrading (1 1 1)
	hex (2 4 6 8 74 76 78 80) (4 4 16) simpleGrading (1 1 1)
	hex (3 5 4 2 75 77 76 74) (4 4 16) simpleGrading (1 1 1)
	hex (9 7 5 3 81 79 77 75) (4 4 16) simpleGrading (1 1 1)
	hex (8 6 7 9 80 78 79 81) (4 4 16) simpleGrading (1 1 1)
	hex (0 2 8 10 72 74 80 82) (8 4 16) simpleGrading (0.2 1 1)
	hex (1 3 2 0 73 75 74 72) (8 4 16) simpleGrading (0.2 1 1)
	hex (11 9 3 1 83 81 75 73) (8 4 16) simpleGrading (0.2 1 1)
	hex (10 8 9 11 82 80 81 83) (8 4 16) simpleGrading (0.2 1 1)
	hex (76 77 79 78 148 149 151 150) (4 4 100) simpleGrading (1 1 1)
	hex (74 76 78 80 146 148 150 152) (4 4 100) simpleGrading (1 1 1)
	hex (75 77 76 74 147 149 148 146) (4 4 100) simpleGrading (1 1 1)
	hex (81 79 77 75 153 151 149 147) (4 4 100) simpleGrading (1 1 1)
	hex (80 78 79 81 152 150 151 153) (4 4 100) simpleGrading (1 1 1)
	hex (14 15 17 16 86 87 89 88) (4 4 16) simpleGrading (1 1 1)
	hex (12 14 16 18 84 86 88 90) (4 4 16) simpleGrading (1 1 1)
	hex (13 15 14 12 85 87 86 84) (4 4 16) simpleGrading (1 1 1)
	hex (19 17 15 13 91 89 87 85) (4 4 16) simpleGrading (1 1 1)
	hex (18 16 17 19 90 88 89 91) (4 4 16) simpleGrading (1 1 1)
	hex (10 12 18 20 82 84 90 92) (8 4 16) simpleGrading (0.2 1 1)
	hex (11 13 12 10 83 85 84 82) (8 4 16) simpleGrading (0.2 1 1)
	hex (21 19 13 11 93 91 85 83) (8 4 16) simpleGrading (0.2 1 1)
	hex (20 18 19 21 92 90 91 93) (8 4 16) simpleGrading (0.2 1 1)
	hex (86 87 89 88 158 159 161 160) (4 4 100) simpleGrading (1 1 1)
	hex (84 86 88 90 156 158 160 162) (4 4 100) simpleGrading (1 1 1)
	hex (85 87 86 84 157 159 158 156) (4 4 100) simpleGrading (1 1 1)
	hex (91 89 87 85 163 161 159 157) (4 4 100) simpleGrading (1 1 1)
	hex (90 88 89 91 162 160 161 163) (4 4 100) simpleGrading (1 1 1)
	hex (24 25 27 26 96 97 99 98) (4 4 16) simpleGrading (1 1 1)
	hex (22 24 26 28 94 96 98 100) (4 4 16) simpleGrading (1 1 1)
	hex (23 25 24 22 95 97 96 94) (4 4 16) simpleGrading (1 1 1)
	hex (29 27 25 23 101 99 97 95) (4 4 16) simpleGrading (1 1 1)
	hex (28 26 27 29 100 98 99 101) (4 4 16) simpleGrading (1 1 1)
	hex (20 22 28 30 92 94 100 102) (8 4 16) simpleGrading (0.2 1 1)
	hex (21 23 22 20 93 95 94 92) (8 4 16) simpleGrading (0.2 1 1)
	hex (31 29 23 21 103 101 95 93) (8 4 16) simpleGrading (0.2 1 1)
	hex (30 28 29 31 102 100 101 103) (8 4 16) simpleGrading (0.2 1 1)
	hex (96 97 99 98 168 169 171 170) (4 4 100) simpleGrading (1 1 1)
	hex (94 96 98 100 166 168 170 172) (4 4 100) simpleGrading (1 1 1)
	hex (95 97 96 94 167 169 168 166) (4 4 100) simpleGrading (1 1 1)
	hex (101 99 97 95 173 171 169 167) (4 4 100) simpleGrading (1 1 1)
	hex (100 98 99 101 172 170 171 173) (4 4 100) simpleGrading (1 1 1)
	hex (34 35 37 36 106 107 109 108) (4 4 16) simpleGrading (1 1 1)
	hex (32 34 36 38 104 106 108 110) (4 4 16) simpleGrading (1 1 1)
	hex (33 35 34 32 105 107 106 104) (4 4 16) simpleGrading (1 1 1)
	hex (39 37 35 33 111 109 107 105) (4 4 16) simpleGrading (1 1 1)
	hex (38 36 37 39 110 108 109 111) (4 4 16) simpleGrading (1 1 1)
	hex (30 32 38 40 102 104 110 112) (8 4 16) simpleGrading (0.2 1 1)
	hex (31 33 32 30 103 105 104 102) (8 4 16) simpleGrading (0.2 1 1)
	hex (41 39 33 31 113 111 105 103) (8 4 16) simpleGrading (0.2 1 1)
	hex (40 38 39 41 112 110 111 113) (8 4 16) simpleGrading (0.2 1 1)
	hex (106 107 109 108 178 179 181 180) (4 4 100) simpleGrading (1 1 1)
	hex (104 106 108 110 176 178 180 182) (4 4 100) simpleGrading (1 1 1)
	hex (105 107 106 104 177 179 178 176) (4 4 100) simpleGrading (1 1 1)
	hex (111 109 107 105 183 181 179 177) (4 4 100) simpleGrading (1 1 1)
	hex (110 108 109 111 182 180 181 183) (4 4 100) simpleGrading (1 1 1)
	hex (44 45 47 46 116 117 119 118) (4 4 16) simpleGrading (1 1 1)
	hex (42 44 46 48 114 116 118 120) (4 4 16) simpleGrading (1 1 1)
	hex (43 45 44 42 115 117 116 114) (4 4 16) simpleGrading (1 1 1)
	hex (49 47 45 43 121 119 117 115) (4 4 16) simpleGrading (1 1 1)
	hex (48 46 47 49 120 118 119 121) (4 4 16) simpleGrading (1 1 1)
	hex (40 42 48 50 112 114 120 122) (8 4 16) simpleGrading (0.2 1 1)
	hex (41 43 42 40 113 115 114 112) (8 4 16) simpleGrading (0.2 1 1)
	hex (51 49 43 41 123 121 115 113) (8 4 16) simpleGrading (0.2 1 1)
	hex (50 48 49 51 122 120 121 123) (8 4 16) simpleGrading (0.2 1 1)
	hex (116 117 119 118 188 189 191 190) (4 4 100) simpleGrading (1 1 1)
	hex (114 116 118 120 186 188 190 192) (4 4 100) simpleGrading (1 1 1)
	hex (115 117 116 114 187 189 188 186) (4 4 100) simpleGrading (1 1 1)
	hex (121 119 117 115 193 191 189 187) (4 4 100) simpleGrading (1 1 1)
	hex (120 118 119 121 192 190 191 193) (4 4 100) simpleGrading (1 1 1)
	hex (54 55 57 56 126 127 129 128) (4 4 16) simpleGrading (1 1 1)
	hex (52 54 56 58 124 126 128 130) (4 4 16) simpleGrading (1 1 1)
	hex (53 55 54 52 125 127 126 124) (4 4 16) simpleGrading (1 1 1)
	hex (59 57 55 53 131 129 127 125) (4 4 16) simpleGrading (1 1 1)
	hex (58 56 57 59 130 128 129 131) (4 4 16) simpleGrading (1 1 1)
	hex (50 52 58 60 122 124 130 132) (8 4 16) simpleGrading (0.2 1 1)
	hex (51 53 52 50 123 125 124 122) (8 4 16) simpleGrading (0.2 1 1)
	hex (61 59 53 51 133 131 125 123) (8 4 16) simpleGrading (0.2 1 1)
	hex (60 58 59 61 132 130 131 133) (8 4 16) simpleGrading (0.2 1 1)
	hex (126 127 129 128 198 199 201 200) (4 4 100) simpleGrading (1 1 1)
	hex (124 126 128 130 196 198 200 202) (4 4 100) simpleGrading (1 1 1)
	hex (125 127 126 124 197 199 198 196) (4 4 100) simpleGrading (1 1 1)
	hex (131 129 127 125 203 201 199 197) (4 4 100) simpleGrading (1 1 1)
	hex (130 128 129 131 202 200 201 203) (4 4 100) simpleGrading (1 1 1)
	hex (64 65 67 66 136 137 139 138) (4 4 16) simpleGrading (1 1 1)
	hex (62 64 66 68 134 136 138 140) (4 4 16) simpleGrading (1 1 1)
	hex (63 65 64 62 135 137 136 134) (4 4 16) simpleGrading (1 1 1)
	hex (69 67 65 63 141 139 137 135) (4 4 16) simpleGrading (1 1 1)
	hex (68 66 67 69 140 138 139 141) (4 4 16) simpleGrading (1 1 1)
	hex (60 62 68 70 132 134 140 142) (8 4 16) simpleGrading (0.2 1 1)
	hex (61 63 62 60 133 135 134 132) (8 4 16) simpleGrading (0.2 1 1)
	hex (71 69 63 61 143 141 135 133) (8 4 16) simpleGrading (0.2 1 1)
	hex (70 68 69 71 142 140 141 143) (8 4 16) simpleGrading (0.2 1 1)
	hex (136 137 139 138 208 209 211 210) (4 4 100) simpleGrading (1 1 1)
	hex (134 136 138 140 206 208 210 212) (4 4 100) simpleGrading (1 1 1)
	hex (135 137 136 134 207 209 208 206) (4 4 100) simpleGrading (1 1 1)
	hex (141 139 137 135 213 211 209 207) (4 4 100) simpleGrading (1 1 1)
	hex (140 138 139 141 212 210 211 213) (4 4 100) simpleGrading (1 1 1)

);

edges
(
	arc 2 3 (50.0 66.5 0)
	arc 3 9 (50.5 67.0 0)
	arc 9 8 (50.0 67.5 0)
	arc 8 2 (49.5 67.0 0)
	arc 74 75 (50.0 66.5 11.0)
	arc 75 81 (50.5 67.0 11.0)
	arc 81 80 (50.0 67.5 11.0)
	arc 80 74 (49.5 67.0 11.0)
	arc 12 13 (50.0 77.5 0)
	arc 13 19 (50.5 78.0 0)
	arc 19 18 (50.0 78.5 0)
	arc 18 12 (49.5 78.0 0)
	arc 84 85 (50.0 77.5 11.0)
	arc 85 91 (50.5 78.0 11.0)
	arc 91 90 (50.0 78.5 11.0)
	arc 90 84 (49.5 78.0 11.0)
	arc 22 23 (50.0 88.5 0)
	arc 23 29 (50.5 89.0 0)
	arc 29 28 (50.0 89.5 0)
	arc 28 22 (49.5 89.0 0)
	arc 94 95 (50.0 88.5 11.0)
	arc 95 101 (50.5 89.0 11.0)
	arc 101 100 (50.0 89.5 11.0)
	arc 100 94 (49.5 89.0 11.0)
	arc 32 33 (50.0 99.5 0)
	arc 33 39 (50.5 100.0 0)
	arc 39 38 (50.0 100.5 0)
	arc 38 32 (49.5 100.0 0)
	arc 104 105 (50.0 99.5 11.0)
	arc 105 111 (50.5 100.0 11.0)
	arc 111 110 (50.0 100.5 11.0)
	arc 110 104 (49.5 100.0 11.0)
	arc 42 43 (50.0 110.5 0)
	arc 43 49 (50.5 111.0 0)
	arc 49 48 (50.0 111.5 0)
	arc 48 42 (49.5 111.0 0)
	arc 114 115 (50.0 110.5 11.0)
	arc 115 121 (50.5 111.0 11.0)
	arc 121 120 (50.0 111.5 11.0)
	arc 120 114 (49.5 111.0 11.0)
	arc 52 53 (50.0 121.5 0)
	arc 53 59 (50.5 122.0 0)
	arc 59 58 (50.0 122.5 0)
	arc 58 52 (49.5 122.0 0)
	arc 124 125 (50.0 121.5 11.0)
	arc 125 131 (50.5 122.0 11.0)
	arc 131 130 (50.0 122.5 11.0)
	arc 130 124 (49.5 122.0 11.0)
	arc 62 63 (50.0 132.5 0)
	arc 63 69 (50.5 133.0 0)
	arc 69 68 (50.0 133.5 0)
	arc 68 62 (49.5 133.0 0)
	arc 134 135 (50.0 132.5 11.0)
	arc 135 141 (50.5 133.0 11.0)
	arc 141 140 (50.0 133.5 11.0)
	arc 140 134 (49.5 133.0 11.0)
	arc 146 147 (50.0 66.5 91.0)
	arc 147 153 (50.5 67.0 91.0)
	arc 153 152 (50.0 67.5 91.0)
	arc 152 146 (49.5 67.0 91.0)
	arc 156 157 (50.0 77.5 91.0)
	arc 157 163 (50.5 78.0 91.0)
	arc 163 162 (50.0 78.5 91.0)
	arc 162 156 (49.5 78.0 91.0)
	arc 166 167 (50.0 88.5 91.0)
	arc 167 173 (50.5 89.0 91.0)
	arc 173 172 (50.0 89.5 91.0)
	arc 172 166 (49.5 89.0 91.0)
	arc 176 177 (50.0 99.5 91.0)
	arc 177 183 (50.5 100.0 91.0)
	arc 183 182 (50.0 100.5 91.0)
	arc 182 176 (49.5 100.0 91.0)
	arc 186 187 (50.0 110.5 91.0)
	arc 187 193 (50.5 111.0 91.0)
	arc 193 192 (50.0 111.5 91.0)
	arc 192 186 (49.5 111.0 91.0)
	arc 196 197 (50.0 121.5 91.0)
	arc 197 203 (50.5 122.0 91.0)
	arc 203 202 (50.0 122.5 91.0)
	arc 202 196 (49.5 122.0 91.0)
	arc 206 207 (50.0 132.5 91.0)
	arc 207 213 (50.5 133.0 91.0)
	arc 213 212 (50.0 133.5 91.0)
	arc 212 206 (49.5 133.0 91.0)
);

patches
(
	patch bristle
	(
		(0 72 82 10)
		(11 83 73 1)
		(72 74 80 82)
		(73 75 74 72)
		(83 81 75 73)
		(82 80 81 83)
		(74 146 152 80)
		(75 147 146 74)
		(81 153 147 75)
		(80 152 153 81)
		(148 149 151 150)
		(146 148 150 152)
		(147 149 148 146)
		(153 151 149 147)
		(152 150 151 153)
		(10 82 92 20)
		(21 93 83 11)
		(82 84 90 92)
		(83 85 84 82)
		(93 91 85 83)
		(92 90 91 93)
		(84 156 162 90)
		(85 157 156 84)
		(91 163 157 85)
		(90 162 163 91)
		(158 159 161 160)
		(156 158 160 162)
		(157 159 158 156)
		(163 161 159 157)
		(162 160 161 163)
		(20 92 102 30)
		(31 103 93 21)
		(92 94 100 102)
		(93 95 94 92)
		(103 101 95 93)
		(102 100 101 103)
		(94 166 172 100)
		(95 167 166 94)
		(101 173 167 95)
		(100 172 173 101)
		(168 169 171 170)
		(166 168 170 172)
		(167 169 168 166)
		(173 171 169 167)
		(172 170 171 173)
		(30 102 112 40)
		(41 113 103 31)
		(102 104 110 112)
		(103 105 104 102)
		(113 111 105 103)
		(112 110 111 113)
		(104 176 182 110)
		(105 177 176 104)
		(111 183 177 105)
		(110 182 183 111)
		(178 179 181 180)
		(176 178 180 182)
		(177 179 178 176)
		(183 181 179 177)
		(182 180 181 183)
		(40 112 122 50)
		(51 123 113 41)
		(112 114 120 122)
		(113 115 114 112)
		(123 121 115 113)
		(122 120 121 123)
		(114 186 192 120)
		(115 187 186 114)
		(121 193 187 115)
		(120 192 193 121)
		(188 189 191 190)
		(186 188 190 192)
		(187 189 188 186)
		(193 191 189 187)
		(192 190 191 193)
		(50 122 132 60)
		(61 133 123 51)
		(122 124 130 132)
		(123 125 124 122)
		(133 131 125 123)
		(132 130 131 133)
		(124 196 202 130)
		(125 197 196 124)
		(131 203 197 125)
		(130 202 203 131)
		(198 199 201 200)
		(196 198 200 202)
		(197 199 198 196)
		(203 201 199 197)
		(202 200 201 203)
		(60 132 142 70)
		(71 143 133 61)
		(132 134 140 142)
		(133 135 134 132)
		(143 141 135 133)
		(142 140 141 143)
		(134 206 212 140)
		(135 207 206 134)
		(141 213 207 135)
		(140 212 213 141)
		(208 209 211 210)
		(206 208 210 212)
		(207 209 208 206)
		(213 211 209 207)
		(212 210 211 213)
		(0 1 73 72)
		(71 70 142 143)
	)

	patch plateFix
	(
		(6 7 5 4)
		(8 6 4 2)
		(2 4 5 3)
		(3 5 7 9)
		(9 7 6 8)
		(10 8 2 0)
		(0 2 3 1)
		(1 3 9 11)
		(11 9 8 10)
		(16 17 15 14)
		(18 16 14 12)
		(12 14 15 13)
		(13 15 17 19)
		(19 17 16 18)
		(20 18 12 10)
		(10 12 13 11)
		(11 13 19 21)
		(21 19 18 20)
		(26 27 25 24)
		(28 26 24 22)
		(22 24 25 23)
		(23 25 27 29)
		(29 27 26 28)
		(30 28 22 20)
		(20 22 23 21)
		(21 23 29 31)
		(31 29 28 30)
		(36 37 35 34)
		(38 36 34 32)
		(32 34 35 33)
		(33 35 37 39)
		(39 37 36 38)
		(40 38 32 30)
		(30 32 33 31)
		(31 33 39 41)
		(41 39 38 40)
		(46 47 45 44)
		(48 46 44 42)
		(42 44 45 43)
		(43 45 47 49)
		(49 47 46 48)
		(50 48 42 40)
		(40 42 43 41)
		(41 43 49 51)
		(51 49 48 50)
		(56 57 55 54)
		(58 56 54 52)
		(52 54 55 53)
		(53 55 57 59)
		(59 57 56 58)
		(60 58 52 50)
		(50 52 53 51)
		(51 53 59 61)
		(61 59 58 60)
		(66 67 65 64)
		(68 66 64 62)
		(62 64 65 63)
		(63 65 67 69)
		(69 67 66 68)
		(70 68 62 60)
		(60 62 63 61)
		(61 63 69 71)
		(71 69 68 70)
	)

);

mergePatchPairs
(
);


// ************************************************************************* //

