/*--------------------------------*- C++ -*----------------------------------*\
| =========                 |                                                 |
| \      /  F ield         | foam-extend: Open Source CFD                    |
|  \    /   O peration     | Version:     4.0                                |
|   \  /    A nd           | Web:         http://www.foam-extend.org         |
|    \/     M anipulation  |                                                 |
\*---------------------------------------------------------------------------*/
FoamFile
{
    version     2.0;
    format      ascii;
    class       dictionary;
    object      blockMeshDict;
}
// * * * * * * * * * * * * * * * * * * * * * * * * * * * * * * * * * * * * * //

convertToMeters 0.001;
vertices
(
	(600 550 0)      //0
	(1200 550 0)      //1
	(723.2233 648.2233 0)      //2
	(1076.7767 648.2233 0)      //3
	(811.6117 736.6117 0)      //4
	(988.3883 736.6117 0)      //5
	(811.6117 913.3883 0)      //6
	(988.3883 913.3883 0)      //7
	(723.2233 1001.7767 0)      //8
	(1076.7767 1001.7767 0)      //9
	(600 1100 0)      //10
	(1200 1100 0)      //11
	(723.2233 1198.2233 0)      //12
	(1076.7767 1198.2233 0)      //13
	(811.6117 1286.6117 0)      //14
	(988.3883 1286.6117 0)      //15
	(811.6117 1463.3883 0)      //16
	(988.3883 1463.3883 0)      //17
	(723.2233 1551.7767 0)      //18
	(1076.7767 1551.7767 0)      //19
	(600 1650 0)      //20
	(1200 1650 0)      //21
	(723.2233 1748.2233 0)      //22
	(1076.7767 1748.2233 0)      //23
	(811.6117 1836.6117 0)      //24
	(988.3883 1836.6117 0)      //25
	(811.6117 2013.3883 0)      //26
	(988.3883 2013.3883 0)      //27
	(723.2233 2101.7767 0)      //28
	(1076.7767 2101.7767 0)      //29
	(600 2200 0)      //30
	(1200 2200 0)      //31
	(723.2233 2298.2233 0)      //32
	(1076.7767 2298.2233 0)      //33
	(811.6117 2386.6117 0)      //34
	(988.3883 2386.6117 0)      //35
	(811.6117 2563.3883 0)      //36
	(988.3883 2563.3883 0)      //37
	(723.2233 2651.7767 0)      //38
	(1076.7767 2651.7767 0)      //39
	(600 2750 0)      //40
	(1200 2750 0)      //41
	(723.2233 2848.2233 0)      //42
	(1076.7767 2848.2233 0)      //43
	(811.6117 2936.6117 0)      //44
	(988.3883 2936.6117 0)      //45
	(811.6117 3113.3883 0)      //46
	(988.3883 3113.3883 0)      //47
	(723.2233 3201.7767 0)      //48
	(1076.7767 3201.7767 0)      //49
	(600 3300 0)      //50
	(1200 3300 0)      //51
	(600 550 150)      //52
	(1200 550 150)      //53
	(723.2233 648.2233 150)      //54
	(1076.7767 648.2233 150)      //55
	(811.6117 736.6117 150)      //56
	(988.3883 736.6117 150)      //57
	(811.6117 913.3883 150)      //58
	(988.3883 913.3883 150)      //59
	(723.2233 1001.7767 150)      //60
	(1076.7767 1001.7767 150)      //61
	(600 1100 150)      //62
	(1200 1100 150)      //63
	(723.2233 1198.2233 150)      //64
	(1076.7767 1198.2233 150)      //65
	(811.6117 1286.6117 150)      //66
	(988.3883 1286.6117 150)      //67
	(811.6117 1463.3883 150)      //68
	(988.3883 1463.3883 150)      //69
	(723.2233 1551.7767 150)      //70
	(1076.7767 1551.7767 150)      //71
	(600 1650 150)      //72
	(1200 1650 150)      //73
	(723.2233 1748.2233 150)      //74
	(1076.7767 1748.2233 150)      //75
	(811.6117 1836.6117 150)      //76
	(988.3883 1836.6117 150)      //77
	(811.6117 2013.3883 150)      //78
	(988.3883 2013.3883 150)      //79
	(723.2233 2101.7767 150)      //80
	(1076.7767 2101.7767 150)      //81
	(600 2200 150)      //82
	(1200 2200 150)      //83
	(723.2233 2298.2233 150)      //84
	(1076.7767 2298.2233 150)      //85
	(811.6117 2386.6117 150)      //86
	(988.3883 2386.6117 150)      //87
	(811.6117 2563.3883 150)      //88
	(988.3883 2563.3883 150)      //89
	(723.2233 2651.7767 150)      //90
	(1076.7767 2651.7767 150)      //91
	(600 2750 150)      //92
	(1200 2750 150)      //93
	(723.2233 2848.2233 150)      //94
	(1076.7767 2848.2233 150)      //95
	(811.6117 2936.6117 150)      //96
	(988.3883 2936.6117 150)      //97
	(811.6117 3113.3883 150)      //98
	(988.3883 3113.3883 150)      //99
	(723.2233 3201.7767 150)      //100
	(1076.7767 3201.7767 150)      //101
	(600 3300 150)      //102
	(1200 3300 150)      //103
	(723.2233 648.2233 1650)      //104
	(1076.7767 648.2233 1650)      //105
	(811.6117 736.6117 1650)      //106
	(988.3883 736.6117 1650)      //107
	(811.6117 913.3883 1650)      //108
	(988.3883 913.3883 1650)      //109
	(723.2233 1001.7767 1650)      //110
	(1076.7767 1001.7767 1650)      //111
	(723.2233 1198.2233 1650)      //112
	(1076.7767 1198.2233 1650)      //113
	(811.6117 1286.6117 1650)      //114
	(988.3883 1286.6117 1650)      //115
	(811.6117 1463.3883 1650)      //116
	(988.3883 1463.3883 1650)      //117
	(723.2233 1551.7767 1650)      //118
	(1076.7767 1551.7767 1650)      //119
	(723.2233 1748.2233 1650)      //120
	(1076.7767 1748.2233 1650)      //121
	(811.6117 1836.6117 1650)      //122
	(988.3883 1836.6117 1650)      //123
	(811.6117 2013.3883 1650)      //124
	(988.3883 2013.3883 1650)      //125
	(723.2233 2101.7767 1650)      //126
	(1076.7767 2101.7767 1650)      //127
	(723.2233 2298.2233 1650)      //128
	(1076.7767 2298.2233 1650)      //129
	(811.6117 2386.6117 1650)      //130
	(988.3883 2386.6117 1650)      //131
	(811.6117 2563.3883 1650)      //132
	(988.3883 2563.3883 1650)      //133
	(723.2233 2651.7767 1650)      //134
	(1076.7767 2651.7767 1650)      //135
	(723.2233 2848.2233 1650)      //136
	(1076.7767 2848.2233 1650)      //137
	(811.6117 2936.6117 1650)      //138
	(988.3883 2936.6117 1650)      //139
	(811.6117 3113.3883 1650)      //140
	(988.3883 3113.3883 1650)      //141
	(723.2233 3201.7767 1650)      //142
	(1076.7767 3201.7767 1650)      //143

);

blocks
(
	hex (4 5 7 6 56 57 59 58) (5 5 1) simpleGrading (1 1 1)
	hex (2 4 6 8 54 56 58 60) (5 5 1) simpleGrading (1 1 1)
	hex (3 5 4 2 55 57 56 54) (5 5 1) simpleGrading (1 1 1)
	hex (9 7 5 3 61 59 57 55) (5 5 1) simpleGrading (1 1 1)
	hex (8 6 7 9 60 58 59 61) (5 5 1) simpleGrading (1 1 1)
	hex (0 2 8 10 52 54 60 62) (5 5 1) simpleGrading (1 1 1)
	hex (1 3 2 0 53 55 54 52) (5 5 1) simpleGrading (1 1 1)
	hex (11 9 3 1 63 61 55 53) (5 5 1) simpleGrading (1 1 1)
	hex (10 5 4 11 62 57 56 63) (5 5 1) simpleGrading (1 1 1)
	hex (56 57 59 58 106 107 109 108) (5 5 10) simpleGrading (1 1 1)
	hex (54 56 58 60 104 106 108 110) (5 5 10) simpleGrading (1 1 1)
	hex (55 57 56 54 105 107 106 104) (5 5 10) simpleGrading (1 1 1)
	hex (61 59 57 55 111 109 107 105) (5 5 10) simpleGrading (1 1 1)
	hex (60 58 59 61 110 108 109 111) (5 5 10) simpleGrading (1 1 1)
	hex (14 15 17 16 66 67 69 68) (5 5 1) simpleGrading (1 1 1)
	hex (12 14 16 18 64 66 68 70) (5 5 1) simpleGrading (1 1 1)
	hex (13 15 14 12 65 67 66 64) (5 5 1) simpleGrading (1 1 1)
	hex (19 17 15 13 71 69 67 65) (5 5 1) simpleGrading (1 1 1)
	hex (18 16 17 19 70 68 69 71) (5 5 1) simpleGrading (1 1 1)
	hex (10 12 18 20 62 64 70 72) (5 5 1) simpleGrading (1 1 1)
	hex (11 13 12 10 63 65 64 62) (5 5 1) simpleGrading (1 1 1)
	hex (21 19 13 11 73 71 65 63) (5 5 1) simpleGrading (1 1 1)
	hex (20 15 14 21 72 67 66 73) (5 5 1) simpleGrading (1 1 1)
	hex (66 67 69 68 114 115 117 116) (5 5 10) simpleGrading (1 1 1)
	hex (64 66 68 70 112 114 116 118) (5 5 10) simpleGrading (1 1 1)
	hex (65 67 66 64 113 115 114 112) (5 5 10) simpleGrading (1 1 1)
	hex (71 69 67 65 119 117 115 113) (5 5 10) simpleGrading (1 1 1)
	hex (70 68 69 71 118 116 117 119) (5 5 10) simpleGrading (1 1 1)
	hex (24 25 27 26 76 77 79 78) (5 5 1) simpleGrading (1 1 1)
	hex (22 24 26 28 74 76 78 80) (5 5 1) simpleGrading (1 1 1)
	hex (23 25 24 22 75 77 76 74) (5 5 1) simpleGrading (1 1 1)
	hex (29 27 25 23 81 79 77 75) (5 5 1) simpleGrading (1 1 1)
	hex (28 26 27 29 80 78 79 81) (5 5 1) simpleGrading (1 1 1)
	hex (20 22 28 30 72 74 80 82) (5 5 1) simpleGrading (1 1 1)
	hex (21 23 22 20 73 75 74 72) (5 5 1) simpleGrading (1 1 1)
	hex (31 29 23 21 83 81 75 73) (5 5 1) simpleGrading (1 1 1)
	hex (30 25 24 31 82 77 76 83) (5 5 1) simpleGrading (1 1 1)
	hex (76 77 79 78 122 123 125 124) (5 5 10) simpleGrading (1 1 1)
	hex (74 76 78 80 120 122 124 126) (5 5 10) simpleGrading (1 1 1)
	hex (75 77 76 74 121 123 122 120) (5 5 10) simpleGrading (1 1 1)
	hex (81 79 77 75 127 125 123 121) (5 5 10) simpleGrading (1 1 1)
	hex (80 78 79 81 126 124 125 127) (5 5 10) simpleGrading (1 1 1)
	hex (34 35 37 36 86 87 89 88) (5 5 1) simpleGrading (1 1 1)
	hex (32 34 36 38 84 86 88 90) (5 5 1) simpleGrading (1 1 1)
	hex (33 35 34 32 85 87 86 84) (5 5 1) simpleGrading (1 1 1)
	hex (39 37 35 33 91 89 87 85) (5 5 1) simpleGrading (1 1 1)
	hex (38 36 37 39 90 88 89 91) (5 5 1) simpleGrading (1 1 1)
	hex (30 32 38 40 82 84 90 92) (5 5 1) simpleGrading (1 1 1)
	hex (31 33 32 30 83 85 84 82) (5 5 1) simpleGrading (1 1 1)
	hex (41 39 33 31 93 91 85 83) (5 5 1) simpleGrading (1 1 1)
	hex (40 35 34 41 92 87 86 93) (5 5 1) simpleGrading (1 1 1)
	hex (86 87 89 88 130 131 133 132) (5 5 10) simpleGrading (1 1 1)
	hex (84 86 88 90 128 130 132 134) (5 5 10) simpleGrading (1 1 1)
	hex (85 87 86 84 129 131 130 128) (5 5 10) simpleGrading (1 1 1)
	hex (91 89 87 85 135 133 131 129) (5 5 10) simpleGrading (1 1 1)
	hex (90 88 89 91 134 132 133 135) (5 5 10) simpleGrading (1 1 1)
	hex (44 45 47 46 96 97 99 98) (5 5 1) simpleGrading (1 1 1)
	hex (42 44 46 48 94 96 98 100) (5 5 1) simpleGrading (1 1 1)
	hex (43 45 44 42 95 97 96 94) (5 5 1) simpleGrading (1 1 1)
	hex (49 47 45 43 101 99 97 95) (5 5 1) simpleGrading (1 1 1)
	hex (48 46 47 49 100 98 99 101) (5 5 1) simpleGrading (1 1 1)
	hex (40 42 48 50 92 94 100 102) (5 5 1) simpleGrading (1 1 1)
	hex (41 43 42 40 93 95 94 92) (5 5 1) simpleGrading (1 1 1)
	hex (51 49 43 41 103 101 95 93) (5 5 1) simpleGrading (1 1 1)
	hex (50 45 44 51 102 97 96 103) (5 5 1) simpleGrading (1 1 1)
	hex (96 97 99 98 138 139 141 140) (5 5 10) simpleGrading (1 1 1)
	hex (94 96 98 100 136 138 140 142) (5 5 10) simpleGrading (1 1 1)
	hex (95 97 96 94 137 139 138 136) (5 5 10) simpleGrading (1 1 1)
	hex (101 99 97 95 143 141 139 137) (5 5 10) simpleGrading (1 1 1)
	hex (100 98 99 101 142 140 141 143) (5 5 10) simpleGrading (1 1 1)

);

edges
(
	arc 2 3 (900.0 1675.0 0)
	arc 3 9 (1150.0 1925.0 0)
	arc 9 8 (900.0 2175.0 0)
	arc 8 2 (650.0 1925.0 0)
	arc 54 55 (900.0 1675.0 150)
	arc 55 61 (1150.0 1925.0 150)
	arc 61 60 (900.0 2175.0 150)
	arc 60 54 (650.0 1925.0 150)
	arc 12 13 (900.0 1675.0 0)
	arc 13 19 (1150.0 1925.0 0)
	arc 19 18 (900.0 2175.0 0)
	arc 18 12 (650.0 1925.0 0)
	arc 64 65 (900.0 1675.0 150)
	arc 65 71 (1150.0 1925.0 150)
	arc 71 70 (900.0 2175.0 150)
	arc 70 64 (650.0 1925.0 150)
	arc 22 23 (900.0 1675.0 0)
	arc 23 29 (1150.0 1925.0 0)
	arc 29 28 (900.0 2175.0 0)
	arc 28 22 (650.0 1925.0 0)
	arc 74 75 (900.0 1675.0 150)
	arc 75 81 (1150.0 1925.0 150)
	arc 81 80 (900.0 2175.0 150)
	arc 80 74 (650.0 1925.0 150)
	arc 32 33 (900.0 1675.0 0)
	arc 33 39 (1150.0 1925.0 0)
	arc 39 38 (900.0 2175.0 0)
	arc 38 32 (650.0 1925.0 0)
	arc 84 85 (900.0 1675.0 150)
	arc 85 91 (1150.0 1925.0 150)
	arc 91 90 (900.0 2175.0 150)
	arc 90 84 (650.0 1925.0 150)
	arc 42 43 (900.0 1675.0 0)
	arc 43 49 (1150.0 1925.0 0)
	arc 49 48 (900.0 2175.0 0)
	arc 48 42 (650.0 1925.0 0)
	arc 94 95 (900.0 1675.0 150)
	arc 95 101 (1150.0 1925.0 150)
	arc 101 100 (900.0 2175.0 150)
	arc 100 94 (650.0 1925.0 150)
	arc 104 105 (900.0 1675.0 1650)
	arc 105 111 (1150.0 1925.0 1650)
	arc 111 110 (900.0 2175.0 1650)
	arc 110 104 (650.0 1925.0 1650)
	arc 112 113 (900.0 1675.0 1650)
	arc 113 119 (1150.0 1925.0 1650)
	arc 119 118 (900.0 2175.0 1650)
	arc 118 112 (650.0 1925.0 1650)
	arc 120 121 (900.0 1675.0 1650)
	arc 121 127 (1150.0 1925.0 1650)
	arc 127 126 (900.0 2175.0 1650)
	arc 126 120 (650.0 1925.0 1650)
	arc 128 129 (900.0 1675.0 1650)
	arc 129 135 (1150.0 1925.0 1650)
	arc 135 134 (900.0 2175.0 1650)
	arc 134 128 (650.0 1925.0 1650)
	arc 136 137 (900.0 1675.0 1650)
	arc 137 143 (1150.0 1925.0 1650)
	arc 143 142 (900.0 2175.0 1650)
	arc 142 136 (650.0 1925.0 1650)
);

patches
(
	patch bristle
	(
		(0 52 62 10)
		(11 63 53 1)
		(52 54 60 62)
		(53 55 54 52)
		(63 61 55 53)
		(62 60 61 63)
		(54 104 110 60)
		(55 105 104 54)
		(61 111 105 55)
		(60 110 111 61)
		(106 107 109 108)
		(104 106 108 110)
		(105 107 106 104)
		(111 109 107 105)
		(110 108 109 111)
		(10 62 72 20)
		(21 73 63 11)
		(62 64 70 72)
		(63 65 64 62)
		(73 71 65 63)
		(72 70 71 73)
		(64 112 118 70)
		(65 113 112 64)
		(71 119 113 65)
		(70 118 119 71)
		(114 115 117 116)
		(112 114 116 118)
		(113 115 114 112)
		(119 117 115 113)
		(118 116 117 119)
		(20 72 82 30)
		(31 83 73 21)
		(72 74 80 82)
		(73 75 74 72)
		(83 81 75 73)
		(82 80 81 83)
		(74 120 126 80)
		(75 121 120 74)
		(81 127 121 75)
		(80 126 127 81)
		(122 123 125 124)
		(120 122 124 126)
		(121 123 122 120)
		(127 125 123 121)
		(126 124 125 127)
		(30 82 92 40)
		(41 93 83 31)
		(82 84 90 92)
		(83 85 84 82)
		(93 91 85 83)
		(92 90 91 93)
		(84 128 134 90)
		(85 129 128 84)
		(91 135 129 85)
		(90 134 135 91)
		(130 131 133 132)
		(128 130 132 134)
		(129 131 130 128)
		(135 133 131 129)
		(134 132 133 135)
		(40 92 102 50)
		(51 103 93 41)
		(92 94 100 102)
		(93 95 94 92)
		(103 101 95 93)
		(102 100 101 103)
		(94 136 142 100)
		(95 137 136 94)
		(101 143 137 95)
		(100 142 143 101)
		(138 139 141 140)
		(136 138 140 142)
		(137 139 138 136)
		(143 141 139 137)
		(142 140 141 143)
		(0 1 53 52)
		(51 50 102 103)
	)

	patch plateFix
	(
		(10 8 2 0)
		(0 2 3 1)
		(1 3 9 11)
		(11 9 8 10)
		(6 7 5 4)
		(8 6 4 2)
		(2 4 5 3)
		(3 5 7 9)
		(9 7 6 8)
		(20 18 12 10)
		(10 12 13 11)
		(11 13 19 21)
		(21 19 18 20)
		(16 17 15 14)
		(18 16 14 12)
		(12 14 15 13)
		(13 15 17 19)
		(19 17 16 18)
		(30 28 22 20)
		(20 22 23 21)
		(21 23 29 31)
		(31 29 28 30)
		(26 27 25 24)
		(28 26 24 22)
		(22 24 25 23)
		(23 25 27 29)
		(29 27 26 28)
		(40 38 32 30)
		(30 32 33 31)
		(31 33 39 41)
		(41 39 38 40)
		(36 37 35 34)
		(38 36 34 32)
		(32 34 35 33)
		(33 35 37 39)
		(39 37 36 38)
		(50 48 42 40)
		(40 42 43 41)
		(41 43 49 51)
		(51 49 48 50)
		(46 47 45 44)
		(48 46 44 42)
		(42 44 45 43)
		(43 45 47 49)
		(49 47 46 48)
	)

);

mergePatchPairs
(
);


// ************************************************************************* //

