/*--------------------------------*- C++ -*----------------------------------*\
| =========                 |                                                 |
| \      /  F ield         | foam-extend: Open Source CFD                    |
|  \    /   O peration     | Version:     4.0                                |
|   \  /    A nd           | Web:         http://www.foam-extend.org         |
|    \/     M anipulation  |                                                 |
\*---------------------------------------------------------------------------*/
FoamFile
{
    version     2.0;
    format      ascii;
    class       dictionary;
    object      blockMeshDict;
}
// * * * * * * * * * * * * * * * * * * * * * * * * * * * * * * * * * * * * * //

convertToMeters 0.001;
vertices
(
	(6 6 0)      //0
	(12 6 0)      //1
	(8.6464 8.6464 0)      //2
	(9.3536 8.6464 0)      //3
	(8.8232 8.8232 0)      //4
	(9.1768 8.8232 0)      //5
	(8.8232 9.1768 0)      //6
	(9.1768 9.1768 0)      //7
	(8.6464 9.3536 0)      //8
	(9.3536 9.3536 0)      //9
	(6 12 0)      //10
	(12 12 0)      //11
	(8.6464 14.6464 0)      //12
	(9.3536 14.6464 0)      //13
	(8.8232 14.8232 0)      //14
	(9.1768 14.8232 0)      //15
	(8.8232 15.1768 0)      //16
	(9.1768 15.1768 0)      //17
	(8.6464 15.3536 0)      //18
	(9.3536 15.3536 0)      //19
	(6 18 0)      //20
	(12 18 0)      //21
	(8.6464 20.6464 0)      //22
	(9.3536 20.6464 0)      //23
	(8.8232 20.8232 0)      //24
	(9.1768 20.8232 0)      //25
	(8.8232 21.1768 0)      //26
	(9.1768 21.1768 0)      //27
	(8.6464 21.3536 0)      //28
	(9.3536 21.3536 0)      //29
	(6 24 0)      //30
	(12 24 0)      //31
	(8.6464 26.6464 0)      //32
	(9.3536 26.6464 0)      //33
	(8.8232 26.8232 0)      //34
	(9.1768 26.8232 0)      //35
	(8.8232 27.1768 0)      //36
	(9.1768 27.1768 0)      //37
	(8.6464 27.3536 0)      //38
	(9.3536 27.3536 0)      //39
	(6 30 0)      //40
	(12 30 0)      //41
	(8.6464 32.6464 0)      //42
	(9.3536 32.6464 0)      //43
	(8.8232 32.8232 0)      //44
	(9.1768 32.8232 0)      //45
	(8.8232 33.1768 0)      //46
	(9.1768 33.1768 0)      //47
	(8.6464 33.3536 0)      //48
	(9.3536 33.3536 0)      //49
	(6 36 0)      //50
	(12 36 0)      //51
	(6 6 1)      //52
	(12 6 1)      //53
	(8.6464 8.6464 1)      //54
	(9.3536 8.6464 1)      //55
	(8.8232 8.8232 1)      //56
	(9.1768 8.8232 1)      //57
	(8.8232 9.1768 1)      //58
	(9.1768 9.1768 1)      //59
	(8.6464 9.3536 1)      //60
	(9.3536 9.3536 1)      //61
	(6 12 1)      //62
	(12 12 1)      //63
	(8.6464 14.6464 1)      //64
	(9.3536 14.6464 1)      //65
	(8.8232 14.8232 1)      //66
	(9.1768 14.8232 1)      //67
	(8.8232 15.1768 1)      //68
	(9.1768 15.1768 1)      //69
	(8.6464 15.3536 1)      //70
	(9.3536 15.3536 1)      //71
	(6 18 1)      //72
	(12 18 1)      //73
	(8.6464 20.6464 1)      //74
	(9.3536 20.6464 1)      //75
	(8.8232 20.8232 1)      //76
	(9.1768 20.8232 1)      //77
	(8.8232 21.1768 1)      //78
	(9.1768 21.1768 1)      //79
	(8.6464 21.3536 1)      //80
	(9.3536 21.3536 1)      //81
	(6 24 1)      //82
	(12 24 1)      //83
	(8.6464 26.6464 1)      //84
	(9.3536 26.6464 1)      //85
	(8.8232 26.8232 1)      //86
	(9.1768 26.8232 1)      //87
	(8.8232 27.1768 1)      //88
	(9.1768 27.1768 1)      //89
	(8.6464 27.3536 1)      //90
	(9.3536 27.3536 1)      //91
	(6 30 1)      //92
	(12 30 1)      //93
	(8.6464 32.6464 1)      //94
	(9.3536 32.6464 1)      //95
	(8.8232 32.8232 1)      //96
	(9.1768 32.8232 1)      //97
	(8.8232 33.1768 1)      //98
	(9.1768 33.1768 1)      //99
	(8.6464 33.3536 1)      //100
	(9.3536 33.3536 1)      //101
	(6 36 1)      //102
	(12 36 1)      //103
	(8.6464 8.6464 101)      //104
	(9.3536 8.6464 101)      //105
	(8.8232 8.8232 101)      //106
	(9.1768 8.8232 101)      //107
	(8.8232 9.1768 101)      //108
	(9.1768 9.1768 101)      //109
	(8.6464 9.3536 101)      //110
	(9.3536 9.3536 101)      //111
	(8.6464 14.6464 101)      //112
	(9.3536 14.6464 101)      //113
	(8.8232 14.8232 101)      //114
	(9.1768 14.8232 101)      //115
	(8.8232 15.1768 101)      //116
	(9.1768 15.1768 101)      //117
	(8.6464 15.3536 101)      //118
	(9.3536 15.3536 101)      //119
	(8.6464 20.6464 101)      //120
	(9.3536 20.6464 101)      //121
	(8.8232 20.8232 101)      //122
	(9.1768 20.8232 101)      //123
	(8.8232 21.1768 101)      //124
	(9.1768 21.1768 101)      //125
	(8.6464 21.3536 101)      //126
	(9.3536 21.3536 101)      //127
	(8.6464 26.6464 101)      //128
	(9.3536 26.6464 101)      //129
	(8.8232 26.8232 101)      //130
	(9.1768 26.8232 101)      //131
	(8.8232 27.1768 101)      //132
	(9.1768 27.1768 101)      //133
	(8.6464 27.3536 101)      //134
	(9.3536 27.3536 101)      //135
	(8.6464 32.6464 101)      //136
	(9.3536 32.6464 101)      //137
	(8.8232 32.8232 101)      //138
	(9.1768 32.8232 101)      //139
	(8.8232 33.1768 101)      //140
	(9.1768 33.1768 101)      //141
	(8.6464 33.3536 101)      //142
	(9.3536 33.3536 101)      //143

);

blocks
(
	hex (4 5 7 6 56 57 59 58) (5 5 1) simpleGrading (1 1 1)
	hex (2 4 6 8 54 56 58 60) (5 5 1) simpleGrading (1 1 1)
	hex (3 5 4 2 55 57 56 54) (5 5 1) simpleGrading (1 1 1)
	hex (9 7 5 3 61 59 57 55) (5 5 1) simpleGrading (1 1 1)
	hex (8 6 7 9 60 58 59 61) (5 5 1) simpleGrading (1 1 1)
	hex (0 2 8 10 52 54 60 62) (5 5 1) simpleGrading (1 1 1)
	hex (1 3 2 0 53 55 54 52) (5 5 1) simpleGrading (1 1 1)
	hex (11 9 3 1 63 61 55 53) (5 5 1) simpleGrading (1 1 1)
	hex (10 8 9 11 62 60 61 63) (5 5 1) simpleGrading (1 1 1)
	hex (56 57 59 58 106 107 109 108) (5 5 100) simpleGrading (1 1 1)
	hex (54 56 58 60 104 106 108 110) (5 5 100) simpleGrading (1 1 1)
	hex (55 57 56 54 105 107 106 104) (5 5 100) simpleGrading (1 1 1)
	hex (61 59 57 55 111 109 107 105) (5 5 100) simpleGrading (1 1 1)
	hex (60 58 59 61 110 108 109 111) (5 5 100) simpleGrading (1 1 1)
	hex (14 15 17 16 66 67 69 68) (5 5 1) simpleGrading (1 1 1)
	hex (12 14 16 18 64 66 68 70) (5 5 1) simpleGrading (1 1 1)
	hex (13 15 14 12 65 67 66 64) (5 5 1) simpleGrading (1 1 1)
	hex (19 17 15 13 71 69 67 65) (5 5 1) simpleGrading (1 1 1)
	hex (18 16 17 19 70 68 69 71) (5 5 1) simpleGrading (1 1 1)
	hex (10 12 18 20 62 64 70 72) (5 5 1) simpleGrading (1 1 1)
	hex (11 13 12 10 63 65 64 62) (5 5 1) simpleGrading (1 1 1)
	hex (21 19 13 11 73 71 65 63) (5 5 1) simpleGrading (1 1 1)
	hex (20 18 19 21 72 70 71 73) (5 5 1) simpleGrading (1 1 1)
	hex (66 67 69 68 114 115 117 116) (5 5 100) simpleGrading (1 1 1)
	hex (64 66 68 70 112 114 116 118) (5 5 100) simpleGrading (1 1 1)
	hex (65 67 66 64 113 115 114 112) (5 5 100) simpleGrading (1 1 1)
	hex (71 69 67 65 119 117 115 113) (5 5 100) simpleGrading (1 1 1)
	hex (70 68 69 71 118 116 117 119) (5 5 100) simpleGrading (1 1 1)
	hex (24 25 27 26 76 77 79 78) (5 5 1) simpleGrading (1 1 1)
	hex (22 24 26 28 74 76 78 80) (5 5 1) simpleGrading (1 1 1)
	hex (23 25 24 22 75 77 76 74) (5 5 1) simpleGrading (1 1 1)
	hex (29 27 25 23 81 79 77 75) (5 5 1) simpleGrading (1 1 1)
	hex (28 26 27 29 80 78 79 81) (5 5 1) simpleGrading (1 1 1)
	hex (20 22 28 30 72 74 80 82) (5 5 1) simpleGrading (1 1 1)
	hex (21 23 22 20 73 75 74 72) (5 5 1) simpleGrading (1 1 1)
	hex (31 29 23 21 83 81 75 73) (5 5 1) simpleGrading (1 1 1)
	hex (30 28 29 31 82 80 81 83) (5 5 1) simpleGrading (1 1 1)
	hex (76 77 79 78 122 123 125 124) (5 5 100) simpleGrading (1 1 1)
	hex (74 76 78 80 120 122 124 126) (5 5 100) simpleGrading (1 1 1)
	hex (75 77 76 74 121 123 122 120) (5 5 100) simpleGrading (1 1 1)
	hex (81 79 77 75 127 125 123 121) (5 5 100) simpleGrading (1 1 1)
	hex (80 78 79 81 126 124 125 127) (5 5 100) simpleGrading (1 1 1)
	hex (34 35 37 36 86 87 89 88) (5 5 1) simpleGrading (1 1 1)
	hex (32 34 36 38 84 86 88 90) (5 5 1) simpleGrading (1 1 1)
	hex (33 35 34 32 85 87 86 84) (5 5 1) simpleGrading (1 1 1)
	hex (39 37 35 33 91 89 87 85) (5 5 1) simpleGrading (1 1 1)
	hex (38 36 37 39 90 88 89 91) (5 5 1) simpleGrading (1 1 1)
	hex (30 32 38 40 82 84 90 92) (5 5 1) simpleGrading (1 1 1)
	hex (31 33 32 30 83 85 84 82) (5 5 1) simpleGrading (1 1 1)
	hex (41 39 33 31 93 91 85 83) (5 5 1) simpleGrading (1 1 1)
	hex (40 38 39 41 92 90 91 93) (5 5 1) simpleGrading (1 1 1)
	hex (86 87 89 88 130 131 133 132) (5 5 100) simpleGrading (1 1 1)
	hex (84 86 88 90 128 130 132 134) (5 5 100) simpleGrading (1 1 1)
	hex (85 87 86 84 129 131 130 128) (5 5 100) simpleGrading (1 1 1)
	hex (91 89 87 85 135 133 131 129) (5 5 100) simpleGrading (1 1 1)
	hex (90 88 89 91 134 132 133 135) (5 5 100) simpleGrading (1 1 1)
	hex (44 45 47 46 96 97 99 98) (5 5 1) simpleGrading (1 1 1)
	hex (42 44 46 48 94 96 98 100) (5 5 1) simpleGrading (1 1 1)
	hex (43 45 44 42 95 97 96 94) (5 5 1) simpleGrading (1 1 1)
	hex (49 47 45 43 101 99 97 95) (5 5 1) simpleGrading (1 1 1)
	hex (48 46 47 49 100 98 99 101) (5 5 1) simpleGrading (1 1 1)
	hex (40 42 48 50 92 94 100 102) (5 5 1) simpleGrading (1 1 1)
	hex (41 43 42 40 93 95 94 92) (5 5 1) simpleGrading (1 1 1)
	hex (51 49 43 41 103 101 95 93) (5 5 1) simpleGrading (1 1 1)
	hex (50 48 49 51 102 100 101 103) (5 5 1) simpleGrading (1 1 1)
	hex (96 97 99 98 138 139 141 140) (5 5 100) simpleGrading (1 1 1)
	hex (94 96 98 100 136 138 140 142) (5 5 100) simpleGrading (1 1 1)
	hex (95 97 96 94 137 139 138 136) (5 5 100) simpleGrading (1 1 1)
	hex (101 99 97 95 143 141 139 137) (5 5 100) simpleGrading (1 1 1)
	hex (100 98 99 101 142 140 141 143) (5 5 100) simpleGrading (1 1 1)

);

edges
(
	arc 2 3 (9.0 8.5 0)
	arc 3 9 (9.5 9.0 0)
	arc 9 8 (9.0 9.5 0)
	arc 8 2 (8.5 9.0 0)
	arc 54 55 (9.0 8.5 1)
	arc 55 61 (9.5 9.0 1)
	arc 61 60 (9.0 9.5 1)
	arc 60 54 (8.5 9.0 1)
	arc 12 13 (9.0 14.5 0)
	arc 13 19 (9.5 15.0 0)
	arc 19 18 (9.0 15.5 0)
	arc 18 12 (8.5 15.0 0)
	arc 64 65 (9.0 14.5 1)
	arc 65 71 (9.5 15.0 1)
	arc 71 70 (9.0 15.5 1)
	arc 70 64 (8.5 15.0 1)
	arc 22 23 (9.0 20.5 0)
	arc 23 29 (9.5 21.0 0)
	arc 29 28 (9.0 21.5 0)
	arc 28 22 (8.5 21.0 0)
	arc 74 75 (9.0 20.5 1)
	arc 75 81 (9.5 21.0 1)
	arc 81 80 (9.0 21.5 1)
	arc 80 74 (8.5 21.0 1)
	arc 32 33 (9.0 26.5 0)
	arc 33 39 (9.5 27.0 0)
	arc 39 38 (9.0 27.5 0)
	arc 38 32 (8.5 27.0 0)
	arc 84 85 (9.0 26.5 1)
	arc 85 91 (9.5 27.0 1)
	arc 91 90 (9.0 27.5 1)
	arc 90 84 (8.5 27.0 1)
	arc 42 43 (9.0 32.5 0)
	arc 43 49 (9.5 33.0 0)
	arc 49 48 (9.0 33.5 0)
	arc 48 42 (8.5 33.0 0)
	arc 94 95 (9.0 32.5 1)
	arc 95 101 (9.5 33.0 1)
	arc 101 100 (9.0 33.5 1)
	arc 100 94 (8.5 33.0 1)
	arc 104 105 (9.0 8.5 101)
	arc 105 111 (9.5 9.0 101)
	arc 111 110 (9.0 9.5 101)
	arc 110 104 (8.5 9.0 101)
	arc 112 113 (9.0 14.5 101)
	arc 113 119 (9.5 15.0 101)
	arc 119 118 (9.0 15.5 101)
	arc 118 112 (8.5 15.0 101)
	arc 120 121 (9.0 20.5 101)
	arc 121 127 (9.5 21.0 101)
	arc 127 126 (9.0 21.5 101)
	arc 126 120 (8.5 21.0 101)
	arc 128 129 (9.0 26.5 101)
	arc 129 135 (9.5 27.0 101)
	arc 135 134 (9.0 27.5 101)
	arc 134 128 (8.5 27.0 101)
	arc 136 137 (9.0 32.5 101)
	arc 137 143 (9.5 33.0 101)
	arc 143 142 (9.0 33.5 101)
	arc 142 136 (8.5 33.0 101)
);

patches
(
	patch bristle
	(
		(0 52 62 10)
		(11 63 53 1)
		(52 54 60 62)
		(53 55 54 52)
		(63 61 55 53)
		(62 60 61 63)
		(54 104 110 60)
		(55 105 104 54)
		(61 111 105 55)
		(60 110 111 61)
		(106 107 109 108)
		(104 106 108 110)
		(105 107 106 104)
		(111 109 107 105)
		(110 108 109 111)
		(10 62 72 20)
		(21 73 63 11)
		(62 64 70 72)
		(63 65 64 62)
		(73 71 65 63)
		(72 70 71 73)
		(64 112 118 70)
		(65 113 112 64)
		(71 119 113 65)
		(70 118 119 71)
		(114 115 117 116)
		(112 114 116 118)
		(113 115 114 112)
		(119 117 115 113)
		(118 116 117 119)
		(20 72 82 30)
		(31 83 73 21)
		(72 74 80 82)
		(73 75 74 72)
		(83 81 75 73)
		(82 80 81 83)
		(74 120 126 80)
		(75 121 120 74)
		(81 127 121 75)
		(80 126 127 81)
		(122 123 125 124)
		(120 122 124 126)
		(121 123 122 120)
		(127 125 123 121)
		(126 124 125 127)
		(30 82 92 40)
		(41 93 83 31)
		(82 84 90 92)
		(83 85 84 82)
		(93 91 85 83)
		(92 90 91 93)
		(84 128 134 90)
		(85 129 128 84)
		(91 135 129 85)
		(90 134 135 91)
		(130 131 133 132)
		(128 130 132 134)
		(129 131 130 128)
		(135 133 131 129)
		(134 132 133 135)
		(40 92 102 50)
		(51 103 93 41)
		(92 94 100 102)
		(93 95 94 92)
		(103 101 95 93)
		(102 100 101 103)
		(94 136 142 100)
		(95 137 136 94)
		(101 143 137 95)
		(100 142 143 101)
		(138 139 141 140)
		(136 138 140 142)
		(137 139 138 136)
		(143 141 139 137)
		(142 140 141 143)
		(0 1 53 52)
		(51 50 102 103)
	)

	patch plateFix
	(
		(10 8 2 0)
		(0 2 3 1)
		(1 3 9 11)
		(11 9 8 10)
		(6 7 5 4)
		(8 6 4 2)
		(2 4 5 3)
		(3 5 7 9)
		(9 7 6 8)
		(20 18 12 10)
		(10 12 13 11)
		(11 13 19 21)
		(21 19 18 20)
		(16 17 15 14)
		(18 16 14 12)
		(12 14 15 13)
		(13 15 17 19)
		(19 17 16 18)
		(30 28 22 20)
		(20 22 23 21)
		(21 23 29 31)
		(31 29 28 30)
		(26 27 25 24)
		(28 26 24 22)
		(22 24 25 23)
		(23 25 27 29)
		(29 27 26 28)
		(40 38 32 30)
		(30 32 33 31)
		(31 33 39 41)
		(41 39 38 40)
		(36 37 35 34)
		(38 36 34 32)
		(32 34 35 33)
		(33 35 37 39)
		(39 37 36 38)
		(50 48 42 40)
		(40 42 43 41)
		(41 43 49 51)
		(51 49 48 50)
		(46 47 45 44)
		(48 46 44 42)
		(42 44 45 43)
		(43 45 47 49)
		(49 47 46 48)
	)

);

mergePatchPairs
(
);


// ************************************************************************* //

