/*--------------------------------*- C++ -*----------------------------------*\
| =========                 |                                                 |
| \      /  F ield         | foam-extend: Open Source CFD                    |
|  \    /   O peration     | Version:     4.0                                |
|   \  /    A nd           | Web:         http://www.foam-extend.org         |
|    \/     M anipulation  |                                                 |
\*---------------------------------------------------------------------------*/
FoamFile
{
    version     2.0;
    format      ascii;
    class       dictionary;
    object      blockMeshDict;
}
// * * * * * * * * * * * * * * * * * * * * * * * * * * * * * * * * * * * * * //

convertToMeters 0.001;
vertices
(
	(102 36 0)      //0
	(108 36 0)      //1
	(104.6464 38.6464 0)      //2
	(105.3536 38.6464 0)      //3
	(104.8232 38.8232 0)      //4
	(105.1768 38.8232 0)      //5
	(104.8232 39.1768 0)      //6
	(105.1768 39.1768 0)      //7
	(104.6464 39.3536 0)      //8
	(105.3536 39.3536 0)      //9
	(102 42 0)      //10
	(108 42 0)      //11
	(104.6464 44.6464 0)      //12
	(105.3536 44.6464 0)      //13
	(104.8232 44.8232 0)      //14
	(105.1768 44.8232 0)      //15
	(104.8232 45.1768 0)      //16
	(105.1768 45.1768 0)      //17
	(104.6464 45.3536 0)      //18
	(105.3536 45.3536 0)      //19
	(102 48 0)      //20
	(108 48 0)      //21
	(104.6464 50.6464 0)      //22
	(105.3536 50.6464 0)      //23
	(104.8232 50.8232 0)      //24
	(105.1768 50.8232 0)      //25
	(104.8232 51.1768 0)      //26
	(105.1768 51.1768 0)      //27
	(104.6464 51.3536 0)      //28
	(105.3536 51.3536 0)      //29
	(102 54 0)      //30
	(108 54 0)      //31
	(102 36 1)      //32
	(108 36 1)      //33
	(104.6464 38.6464 1)      //34
	(105.3536 38.6464 1)      //35
	(104.8232 38.8232 1)      //36
	(105.1768 38.8232 1)      //37
	(104.8232 39.1768 1)      //38
	(105.1768 39.1768 1)      //39
	(104.6464 39.3536 1)      //40
	(105.3536 39.3536 1)      //41
	(102 42 1)      //42
	(108 42 1)      //43
	(104.6464 44.6464 1)      //44
	(105.3536 44.6464 1)      //45
	(104.8232 44.8232 1)      //46
	(105.1768 44.8232 1)      //47
	(104.8232 45.1768 1)      //48
	(105.1768 45.1768 1)      //49
	(104.6464 45.3536 1)      //50
	(105.3536 45.3536 1)      //51
	(102 48 1)      //52
	(108 48 1)      //53
	(104.6464 50.6464 1)      //54
	(105.3536 50.6464 1)      //55
	(104.8232 50.8232 1)      //56
	(105.1768 50.8232 1)      //57
	(104.8232 51.1768 1)      //58
	(105.1768 51.1768 1)      //59
	(104.6464 51.3536 1)      //60
	(105.3536 51.3536 1)      //61
	(102 54 1)      //62
	(108 54 1)      //63
	(102 36 101)      //64
	(108 36 101)      //65
	(104.6464 38.6464 101)      //66
	(105.3536 38.6464 101)      //67
	(104.8232 38.8232 101)      //68
	(105.1768 38.8232 101)      //69
	(104.8232 39.1768 101)      //70
	(105.1768 39.1768 101)      //71
	(104.6464 39.3536 101)      //72
	(105.3536 39.3536 101)      //73
	(102 42 101)      //74
	(108 42 101)      //75
	(104.6464 44.6464 101)      //76
	(105.3536 44.6464 101)      //77
	(104.8232 44.8232 101)      //78
	(105.1768 44.8232 101)      //79
	(104.8232 45.1768 101)      //80
	(105.1768 45.1768 101)      //81
	(104.6464 45.3536 101)      //82
	(105.3536 45.3536 101)      //83
	(102 48 101)      //84
	(108 48 101)      //85
	(104.6464 50.6464 101)      //86
	(105.3536 50.6464 101)      //87
	(104.8232 50.8232 101)      //88
	(105.1768 50.8232 101)      //89
	(104.8232 51.1768 101)      //90
	(105.1768 51.1768 101)      //91
	(104.6464 51.3536 101)      //92
	(105.3536 51.3536 101)      //93
	(102 54 101)      //94
	(108 54 101)      //95

);

blocks
(
	hex (4 5 7 6 36 37 39 38) (2 2 2) simpleGrading (1 1 1)
	hex (2 4 6 8 34 36 38 40) (2 2 2) simpleGrading (1 1 1)
	hex (3 5 4 2 35 37 36 34) (2 2 2) simpleGrading (1 1 1)
	hex (9 7 5 3 41 39 37 35) (2 2 2) simpleGrading (1 1 1)
	hex (8 6 7 9 40 38 39 41) (2 2 2) simpleGrading (1 1 1)
	hex (0 2 8 10 32 34 40 42) (8 2 2) simpleGrading (0.1 1 1)
	hex (1 3 2 0 33 35 34 32) (8 2 2) simpleGrading (0.1 1 1)
	hex (11 9 3 1 43 41 35 33) (8 2 2) simpleGrading (0.1 1 1)
	hex (10 8 9 11 42 40 41 43) (8 2 2) simpleGrading (0.1 1 1)
	hex (36 37 39 38 68 69 71 70) (2 2 20) simpleGrading (1 1 1)
	hex (34 36 38 40 66 68 70 72) (2 2 20) simpleGrading (1 1 1)
	hex (35 37 36 34 67 69 68 66) (2 2 20) simpleGrading (1 1 1)
	hex (41 39 37 35 73 71 69 67) (2 2 20) simpleGrading (1 1 1)
	hex (40 38 39 41 72 70 71 73) (2 2 20) simpleGrading (1 1 1)
	hex (14 15 17 16 46 47 49 48) (2 2 2) simpleGrading (1 1 1)
	hex (12 14 16 18 44 46 48 50) (2 2 2) simpleGrading (1 1 1)
	hex (13 15 14 12 45 47 46 44) (2 2 2) simpleGrading (1 1 1)
	hex (19 17 15 13 51 49 47 45) (2 2 2) simpleGrading (1 1 1)
	hex (18 16 17 19 50 48 49 51) (2 2 2) simpleGrading (1 1 1)
	hex (10 12 18 20 42 44 50 52) (8 2 2) simpleGrading (0.1 1 1)
	hex (11 13 12 10 43 45 44 42) (8 2 2) simpleGrading (0.1 1 1)
	hex (21 19 13 11 53 51 45 43) (8 2 2) simpleGrading (0.1 1 1)
	hex (20 18 19 21 52 50 51 53) (8 2 2) simpleGrading (0.1 1 1)
	hex (46 47 49 48 78 79 81 80) (2 2 20) simpleGrading (1 1 1)
	hex (44 46 48 50 76 78 80 82) (2 2 20) simpleGrading (1 1 1)
	hex (45 47 46 44 77 79 78 76) (2 2 20) simpleGrading (1 1 1)
	hex (51 49 47 45 83 81 79 77) (2 2 20) simpleGrading (1 1 1)
	hex (50 48 49 51 82 80 81 83) (2 2 20) simpleGrading (1 1 1)
	hex (24 25 27 26 56 57 59 58) (2 2 2) simpleGrading (1 1 1)
	hex (22 24 26 28 54 56 58 60) (2 2 2) simpleGrading (1 1 1)
	hex (23 25 24 22 55 57 56 54) (2 2 2) simpleGrading (1 1 1)
	hex (29 27 25 23 61 59 57 55) (2 2 2) simpleGrading (1 1 1)
	hex (28 26 27 29 60 58 59 61) (2 2 2) simpleGrading (1 1 1)
	hex (20 22 28 30 52 54 60 62) (8 2 2) simpleGrading (0.1 1 1)
	hex (21 23 22 20 53 55 54 52) (8 2 2) simpleGrading (0.1 1 1)
	hex (31 29 23 21 63 61 55 53) (8 2 2) simpleGrading (0.1 1 1)
	hex (30 28 29 31 62 60 61 63) (8 2 2) simpleGrading (0.1 1 1)
	hex (56 57 59 58 88 89 91 90) (2 2 20) simpleGrading (1 1 1)
	hex (54 56 58 60 86 88 90 92) (2 2 20) simpleGrading (1 1 1)
	hex (55 57 56 54 87 89 88 86) (2 2 20) simpleGrading (1 1 1)
	hex (61 59 57 55 93 91 89 87) (2 2 20) simpleGrading (1 1 1)
	hex (60 58 59 61 92 90 91 93) (2 2 20) simpleGrading (1 1 1)

);

edges
(
	arc 2 3 (105.0 38.5 0)
	arc 3 9 (105.5 39.0 0)
	arc 9 8 (105.0 39.5 0)
	arc 8 2 (104.5 39.0 0)
	arc 34 35 (105.0 38.5 1)
	arc 35 41 (105.5 39.0 1)
	arc 41 40 (105.0 39.5 1)
	arc 40 34 (104.5 39.0 1)
	arc 12 13 (105.0 44.5 0)
	arc 13 19 (105.5 45.0 0)
	arc 19 18 (105.0 45.5 0)
	arc 18 12 (104.5 45.0 0)
	arc 44 45 (105.0 44.5 1)
	arc 45 51 (105.5 45.0 1)
	arc 51 50 (105.0 45.5 1)
	arc 50 44 (104.5 45.0 1)
	arc 22 23 (105.0 50.5 0)
	arc 23 29 (105.5 51.0 0)
	arc 29 28 (105.0 51.5 0)
	arc 28 22 (104.5 51.0 0)
	arc 54 55 (105.0 50.5 1)
	arc 55 61 (105.5 51.0 1)
	arc 61 60 (105.0 51.5 1)
	arc 60 54 (104.5 51.0 1)
	arc 66 67 (105.0 38.5 101)
	arc 67 73 (105.5 39.0 101)
	arc 73 72 (105.0 39.5 101)
	arc 72 66 (104.5 39.0 101)
	arc 76 77 (105.0 44.5 101)
	arc 77 83 (105.5 45.0 101)
	arc 83 82 (105.0 45.5 101)
	arc 82 76 (104.5 45.0 101)
	arc 86 87 (105.0 50.5 101)
	arc 87 93 (105.5 51.0 101)
	arc 93 92 (105.0 51.5 101)
	arc 92 86 (104.5 51.0 101)
);

patches
(
	patch bristle
	(
		(0 32 42 10)
		(11 43 33 1)
		(32 34 40 42)
		(33 35 34 32)
		(43 41 35 33)
		(42 40 41 43)
		(34 66 72 40)
		(35 67 66 34)
		(41 73 67 35)
		(40 72 73 41)
		(68 69 71 70)
		(66 68 70 72)
		(67 69 68 66)
		(73 71 69 67)
		(72 70 71 73)
		(10 8 2 0)
		(0 2 3 1)
		(1 3 9 11)
		(11 9 8 10)
		(10 42 52 20)
		(21 53 43 11)
		(42 44 50 52)
		(43 45 44 42)
		(53 51 45 43)
		(52 50 51 53)
		(44 76 82 50)
		(45 77 76 44)
		(51 83 77 45)
		(50 82 83 51)
		(78 79 81 80)
		(76 78 80 82)
		(77 79 78 76)
		(83 81 79 77)
		(82 80 81 83)
		(20 18 12 10)
		(10 12 13 11)
		(11 13 19 21)
		(21 19 18 20)
		(20 52 62 30)
		(31 63 53 21)
		(52 54 60 62)
		(53 55 54 52)
		(63 61 55 53)
		(62 60 61 63)
		(54 86 92 60)
		(55 87 86 54)
		(61 93 87 55)
		(60 92 93 61)
		(88 89 91 90)
		(86 88 90 92)
		(87 89 88 86)
		(93 91 89 87)
		(92 90 91 93)
		(30 28 22 20)
		(20 22 23 21)
		(21 23 29 31)
		(31 29 28 30)
		(0 1 33 32)
		(31 30 62 63)
	)

	patch plateFix
	(
		(6 7 5 4)
		(8 6 4 2)
		(2 4 5 3)
		(3 5 7 9)
		(9 7 6 8)
		(16 17 15 14)
		(18 16 14 12)
		(12 14 15 13)
		(13 15 17 19)
		(19 17 16 18)
		(26 27 25 24)
		(28 26 24 22)
		(22 24 25 23)
		(23 25 27 29)
		(29 27 26 28)
	)

);

mergePatchPairs
(
);


// ************************************************************************* //

