/*--------------------------------*- C++ -*----------------------------------*\
| =========                 |                                                 |
| \      /  F ield         | foam-extend: Open Source CFD                    |
|  \    /   O peration     | Version:     4.0                                |
|   \  /    A nd           | Web:         http://www.foam-extend.org         |
|    \/     M anipulation  |                                                 |
\*---------------------------------------------------------------------------*/
FoamFile
{
    version     2.0;
    format      ascii;
    class       dictionary;
    object      blockMeshDict;
}
// * * * * * * * * * * * * * * * * * * * * * * * * * * * * * * * * * * * * * //

convertToMeters 0.001;
vertices
(
	(49.5 54 0)      //0
	(55.5 54 0)      //1
	(51.4393 55.9393 0)      //2
	(53.5607 55.9393 0)      //3
	(52.1464 56.6464 0)      //4
	(52.8536 56.6464 0)      //5
	(52.3232 56.8232 0)      //6
	(52.6768 56.8232 0)      //7
	(52.3232 57.1768 0)      //8
	(52.6768 57.1768 0)      //9
	(52.1464 57.3536 0)      //10
	(52.8536 57.3536 0)      //11
	(51.4393 58.0607 0)      //12
	(53.5607 58.0607 0)      //13
	(49.5 60 0)      //14
	(55.5 60 0)      //15
	(51.4393 61.9393 0)      //16
	(53.5607 61.9393 0)      //17
	(52.1464 62.6464 0)      //18
	(52.8536 62.6464 0)      //19
	(52.3232 62.8232 0)      //20
	(52.6768 62.8232 0)      //21
	(52.3232 63.1768 0)      //22
	(52.6768 63.1768 0)      //23
	(52.1464 63.3536 0)      //24
	(52.8536 63.3536 0)      //25
	(51.4393 64.0607 0)      //26
	(53.5607 64.0607 0)      //27
	(49.5 66 0)      //28
	(55.5 66 0)      //29
	(51.4393 67.9393 0)      //30
	(53.5607 67.9393 0)      //31
	(52.1464 68.6464 0)      //32
	(52.8536 68.6464 0)      //33
	(52.3232 68.8232 0)      //34
	(52.6768 68.8232 0)      //35
	(52.3232 69.1768 0)      //36
	(52.6768 69.1768 0)      //37
	(52.1464 69.3536 0)      //38
	(52.8536 69.3536 0)      //39
	(51.4393 70.0607 0)      //40
	(53.5607 70.0607 0)      //41
	(49.5 72 0)      //42
	(55.5 72 0)      //43
	(51.4393 73.9393 0)      //44
	(53.5607 73.9393 0)      //45
	(52.1464 74.6464 0)      //46
	(52.8536 74.6464 0)      //47
	(52.3232 74.8232 0)      //48
	(52.6768 74.8232 0)      //49
	(52.3232 75.1768 0)      //50
	(52.6768 75.1768 0)      //51
	(52.1464 75.3536 0)      //52
	(52.8536 75.3536 0)      //53
	(51.4393 76.0607 0)      //54
	(53.5607 76.0607 0)      //55
	(49.5 78 0)      //56
	(55.5 78 0)      //57
	(51.4393 79.9393 0)      //58
	(53.5607 79.9393 0)      //59
	(52.1464 80.6464 0)      //60
	(52.8536 80.6464 0)      //61
	(52.3232 80.8232 0)      //62
	(52.6768 80.8232 0)      //63
	(52.3232 81.1768 0)      //64
	(52.6768 81.1768 0)      //65
	(52.1464 81.3536 0)      //66
	(52.8536 81.3536 0)      //67
	(51.4393 82.0607 0)      //68
	(53.5607 82.0607 0)      //69
	(49.5 84 0)      //70
	(55.5 84 0)      //71
	(51.4393 85.9393 0)      //72
	(53.5607 85.9393 0)      //73
	(52.1464 86.6464 0)      //74
	(52.8536 86.6464 0)      //75
	(52.3232 86.8232 0)      //76
	(52.6768 86.8232 0)      //77
	(52.3232 87.1768 0)      //78
	(52.6768 87.1768 0)      //79
	(52.1464 87.3536 0)      //80
	(52.8536 87.3536 0)      //81
	(51.4393 88.0607 0)      //82
	(53.5607 88.0607 0)      //83
	(49.5 90 0)      //84
	(55.5 90 0)      //85
	(51.4393 91.9393 0)      //86
	(53.5607 91.9393 0)      //87
	(52.1464 92.6464 0)      //88
	(52.8536 92.6464 0)      //89
	(52.3232 92.8232 0)      //90
	(52.6768 92.8232 0)      //91
	(52.3232 93.1768 0)      //92
	(52.6768 93.1768 0)      //93
	(52.1464 93.3536 0)      //94
	(52.8536 93.3536 0)      //95
	(51.4393 94.0607 0)      //96
	(53.5607 94.0607 0)      //97
	(49.5 96 0)      //98
	(55.5 96 0)      //99
	(49.5 54 8)      //100
	(55.5 54 8)      //101
	(51.4393 55.9393 8)      //102
	(53.5607 55.9393 8)      //103
	(52.1464 56.6464 8)      //104
	(52.8536 56.6464 8)      //105
	(52.3232 56.8232 8)      //106
	(52.6768 56.8232 8)      //107
	(52.3232 57.1768 8)      //108
	(52.6768 57.1768 8)      //109
	(52.1464 57.3536 8)      //110
	(52.8536 57.3536 8)      //111
	(51.4393 58.0607 8)      //112
	(53.5607 58.0607 8)      //113
	(49.5 60 8)      //114
	(55.5 60 8)      //115
	(51.4393 61.9393 8)      //116
	(53.5607 61.9393 8)      //117
	(52.1464 62.6464 8)      //118
	(52.8536 62.6464 8)      //119
	(52.3232 62.8232 8)      //120
	(52.6768 62.8232 8)      //121
	(52.3232 63.1768 8)      //122
	(52.6768 63.1768 8)      //123
	(52.1464 63.3536 8)      //124
	(52.8536 63.3536 8)      //125
	(51.4393 64.0607 8)      //126
	(53.5607 64.0607 8)      //127
	(49.5 66 8)      //128
	(55.5 66 8)      //129
	(51.4393 67.9393 8)      //130
	(53.5607 67.9393 8)      //131
	(52.1464 68.6464 8)      //132
	(52.8536 68.6464 8)      //133
	(52.3232 68.8232 8)      //134
	(52.6768 68.8232 8)      //135
	(52.3232 69.1768 8)      //136
	(52.6768 69.1768 8)      //137
	(52.1464 69.3536 8)      //138
	(52.8536 69.3536 8)      //139
	(51.4393 70.0607 8)      //140
	(53.5607 70.0607 8)      //141
	(49.5 72 8)      //142
	(55.5 72 8)      //143
	(51.4393 73.9393 8)      //144
	(53.5607 73.9393 8)      //145
	(52.1464 74.6464 8)      //146
	(52.8536 74.6464 8)      //147
	(52.3232 74.8232 8)      //148
	(52.6768 74.8232 8)      //149
	(52.3232 75.1768 8)      //150
	(52.6768 75.1768 8)      //151
	(52.1464 75.3536 8)      //152
	(52.8536 75.3536 8)      //153
	(51.4393 76.0607 8)      //154
	(53.5607 76.0607 8)      //155
	(49.5 78 8)      //156
	(55.5 78 8)      //157
	(51.4393 79.9393 8)      //158
	(53.5607 79.9393 8)      //159
	(52.1464 80.6464 8)      //160
	(52.8536 80.6464 8)      //161
	(52.3232 80.8232 8)      //162
	(52.6768 80.8232 8)      //163
	(52.3232 81.1768 8)      //164
	(52.6768 81.1768 8)      //165
	(52.1464 81.3536 8)      //166
	(52.8536 81.3536 8)      //167
	(51.4393 82.0607 8)      //168
	(53.5607 82.0607 8)      //169
	(49.5 84 8)      //170
	(55.5 84 8)      //171
	(51.4393 85.9393 8)      //172
	(53.5607 85.9393 8)      //173
	(52.1464 86.6464 8)      //174
	(52.8536 86.6464 8)      //175
	(52.3232 86.8232 8)      //176
	(52.6768 86.8232 8)      //177
	(52.3232 87.1768 8)      //178
	(52.6768 87.1768 8)      //179
	(52.1464 87.3536 8)      //180
	(52.8536 87.3536 8)      //181
	(51.4393 88.0607 8)      //182
	(53.5607 88.0607 8)      //183
	(49.5 90 8)      //184
	(55.5 90 8)      //185
	(51.4393 91.9393 8)      //186
	(53.5607 91.9393 8)      //187
	(52.1464 92.6464 8)      //188
	(52.8536 92.6464 8)      //189
	(52.3232 92.8232 8)      //190
	(52.6768 92.8232 8)      //191
	(52.3232 93.1768 8)      //192
	(52.6768 93.1768 8)      //193
	(52.1464 93.3536 8)      //194
	(52.8536 93.3536 8)      //195
	(51.4393 94.0607 8)      //196
	(53.5607 94.0607 8)      //197
	(49.5 96 8)      //198
	(55.5 96 8)      //199
	(49.5 54 88)      //200
	(55.5 54 88)      //201
	(51.4393 55.9393 88)      //202
	(53.5607 55.9393 88)      //203
	(52.1464 56.6464 88)      //204
	(52.8536 56.6464 88)      //205
	(52.3232 56.8232 88)      //206
	(52.6768 56.8232 88)      //207
	(52.3232 57.1768 88)      //208
	(52.6768 57.1768 88)      //209
	(52.1464 57.3536 88)      //210
	(52.8536 57.3536 88)      //211
	(51.4393 58.0607 88)      //212
	(53.5607 58.0607 88)      //213
	(49.5 60 88)      //214
	(55.5 60 88)      //215
	(51.4393 61.9393 88)      //216
	(53.5607 61.9393 88)      //217
	(52.1464 62.6464 88)      //218
	(52.8536 62.6464 88)      //219
	(52.3232 62.8232 88)      //220
	(52.6768 62.8232 88)      //221
	(52.3232 63.1768 88)      //222
	(52.6768 63.1768 88)      //223
	(52.1464 63.3536 88)      //224
	(52.8536 63.3536 88)      //225
	(51.4393 64.0607 88)      //226
	(53.5607 64.0607 88)      //227
	(49.5 66 88)      //228
	(55.5 66 88)      //229
	(51.4393 67.9393 88)      //230
	(53.5607 67.9393 88)      //231
	(52.1464 68.6464 88)      //232
	(52.8536 68.6464 88)      //233
	(52.3232 68.8232 88)      //234
	(52.6768 68.8232 88)      //235
	(52.3232 69.1768 88)      //236
	(52.6768 69.1768 88)      //237
	(52.1464 69.3536 88)      //238
	(52.8536 69.3536 88)      //239
	(51.4393 70.0607 88)      //240
	(53.5607 70.0607 88)      //241
	(49.5 72 88)      //242
	(55.5 72 88)      //243
	(51.4393 73.9393 88)      //244
	(53.5607 73.9393 88)      //245
	(52.1464 74.6464 88)      //246
	(52.8536 74.6464 88)      //247
	(52.3232 74.8232 88)      //248
	(52.6768 74.8232 88)      //249
	(52.3232 75.1768 88)      //250
	(52.6768 75.1768 88)      //251
	(52.1464 75.3536 88)      //252
	(52.8536 75.3536 88)      //253
	(51.4393 76.0607 88)      //254
	(53.5607 76.0607 88)      //255
	(49.5 78 88)      //256
	(55.5 78 88)      //257
	(51.4393 79.9393 88)      //258
	(53.5607 79.9393 88)      //259
	(52.1464 80.6464 88)      //260
	(52.8536 80.6464 88)      //261
	(52.3232 80.8232 88)      //262
	(52.6768 80.8232 88)      //263
	(52.3232 81.1768 88)      //264
	(52.6768 81.1768 88)      //265
	(52.1464 81.3536 88)      //266
	(52.8536 81.3536 88)      //267
	(51.4393 82.0607 88)      //268
	(53.5607 82.0607 88)      //269
	(49.5 84 88)      //270
	(55.5 84 88)      //271
	(51.4393 85.9393 88)      //272
	(53.5607 85.9393 88)      //273
	(52.1464 86.6464 88)      //274
	(52.8536 86.6464 88)      //275
	(52.3232 86.8232 88)      //276
	(52.6768 86.8232 88)      //277
	(52.3232 87.1768 88)      //278
	(52.6768 87.1768 88)      //279
	(52.1464 87.3536 88)      //280
	(52.8536 87.3536 88)      //281
	(51.4393 88.0607 88)      //282
	(53.5607 88.0607 88)      //283
	(49.5 90 88)      //284
	(55.5 90 88)      //285
	(51.4393 91.9393 88)      //286
	(53.5607 91.9393 88)      //287
	(52.1464 92.6464 88)      //288
	(52.8536 92.6464 88)      //289
	(52.3232 92.8232 88)      //290
	(52.6768 92.8232 88)      //291
	(52.3232 93.1768 88)      //292
	(52.6768 93.1768 88)      //293
	(52.1464 93.3536 88)      //294
	(52.8536 93.3536 88)      //295
	(51.4393 94.0607 88)      //296
	(53.5607 94.0607 88)      //297
	(49.5 96 88)      //298
	(55.5 96 88)      //299

);

blocks
(
	hex (6 7 9 8 106 107 109 108) (2 2 10) simpleGrading (1 1 1)
	hex (4 6 8 10 104 106 108 110) (2 2 10) simpleGrading (1 1 1)
	hex (5 7 6 4 105 107 106 104) (2 2 10) simpleGrading (1 1 1)
	hex (11 9 7 5 111 109 107 105) (2 2 10) simpleGrading (1 1 1)
	hex (10 8 9 11 110 108 109 111) (2 2 10) simpleGrading (1 1 1)
	hex (0 2 12 14 100 102 112 114) (4 2 10) simpleGrading (0.2 1 1)
	hex (1 3 2 0 101 103 102 100) (4 2 10) simpleGrading (0.2 1 1)
	hex (15 13 3 1 115 113 103 101) (4 2 10) simpleGrading (0.2 1 1)
	hex (14 12 13 15 114 112 113 115) (4 2 10) simpleGrading (0.2 1 1)
	hex (2 4 10 12 102 104 110 112) (4 2 10) simpleGrading (0.2 1 1)
	hex (3 5 4 2 103 105 104 102) (4 2 10) simpleGrading (0.2 1 1)
	hex (13 11 5 3 113 111 105 102) (4 2 10) simpleGrading (0.2 1 1)
	hex (12 10 11 13 112 110 111 113) (4 2 10) simpleGrading (0.2 1 1)
	hex (106 107 109 108 206 207 209 208) (2 2 100) simpleGrading (1 1 1)
	hex (104 106 108 110 204 206 208 210) (2 2 100) simpleGrading (1 1 1)
	hex (105 107 106 104 205 207 206 204) (2 2 100) simpleGrading (1 1 1)
	hex (111 109 107 105 211 209 207 205) (2 2 100) simpleGrading (1 1 1)
	hex (110 108 109 111 210 208 209 211) (2 2 100) simpleGrading (1 1 1)
	hex (20 21 23 22 120 121 123 122) (2 2 10) simpleGrading (1 1 1)
	hex (18 20 22 24 118 120 122 124) (2 2 10) simpleGrading (1 1 1)
	hex (19 21 20 18 119 121 120 118) (2 2 10) simpleGrading (1 1 1)
	hex (25 23 21 19 125 123 121 119) (2 2 10) simpleGrading (1 1 1)
	hex (24 22 23 25 124 122 123 125) (2 2 10) simpleGrading (1 1 1)
	hex (14 16 26 28 114 116 126 128) (4 2 10) simpleGrading (0.2 1 1)
	hex (15 17 16 14 115 117 116 114) (4 2 10) simpleGrading (0.2 1 1)
	hex (29 27 17 15 129 127 117 115) (4 2 10) simpleGrading (0.2 1 1)
	hex (28 26 27 29 128 126 127 129) (4 2 10) simpleGrading (0.2 1 1)
	hex (16 18 24 26 116 118 124 126) (4 2 10) simpleGrading (0.2 1 1)
	hex (17 19 18 16 117 119 118 116) (4 2 10) simpleGrading (0.2 1 1)
	hex (27 25 19 17 127 125 119 116) (4 2 10) simpleGrading (0.2 1 1)
	hex (26 24 25 27 126 124 125 127) (4 2 10) simpleGrading (0.2 1 1)
	hex (120 121 123 122 220 221 223 222) (2 2 100) simpleGrading (1 1 1)
	hex (118 120 122 124 218 220 222 224) (2 2 100) simpleGrading (1 1 1)
	hex (119 121 120 118 219 221 220 218) (2 2 100) simpleGrading (1 1 1)
	hex (125 123 121 119 225 223 221 219) (2 2 100) simpleGrading (1 1 1)
	hex (124 122 123 125 224 222 223 225) (2 2 100) simpleGrading (1 1 1)
	hex (34 35 37 36 134 135 137 136) (2 2 10) simpleGrading (1 1 1)
	hex (32 34 36 38 132 134 136 138) (2 2 10) simpleGrading (1 1 1)
	hex (33 35 34 32 133 135 134 132) (2 2 10) simpleGrading (1 1 1)
	hex (39 37 35 33 139 137 135 133) (2 2 10) simpleGrading (1 1 1)
	hex (38 36 37 39 138 136 137 139) (2 2 10) simpleGrading (1 1 1)
	hex (28 30 40 42 128 130 140 142) (4 2 10) simpleGrading (0.2 1 1)
	hex (29 31 30 28 129 131 130 128) (4 2 10) simpleGrading (0.2 1 1)
	hex (43 41 31 29 143 141 131 129) (4 2 10) simpleGrading (0.2 1 1)
	hex (42 40 41 43 142 140 141 143) (4 2 10) simpleGrading (0.2 1 1)
	hex (30 32 38 40 130 132 138 140) (4 2 10) simpleGrading (0.2 1 1)
	hex (31 33 32 30 131 133 132 130) (4 2 10) simpleGrading (0.2 1 1)
	hex (41 39 33 31 141 139 133 130) (4 2 10) simpleGrading (0.2 1 1)
	hex (40 38 39 41 140 138 139 141) (4 2 10) simpleGrading (0.2 1 1)
	hex (134 135 137 136 234 235 237 236) (2 2 100) simpleGrading (1 1 1)
	hex (132 134 136 138 232 234 236 238) (2 2 100) simpleGrading (1 1 1)
	hex (133 135 134 132 233 235 234 232) (2 2 100) simpleGrading (1 1 1)
	hex (139 137 135 133 239 237 235 233) (2 2 100) simpleGrading (1 1 1)
	hex (138 136 137 139 238 236 237 239) (2 2 100) simpleGrading (1 1 1)
	hex (48 49 51 50 148 149 151 150) (2 2 10) simpleGrading (1 1 1)
	hex (46 48 50 52 146 148 150 152) (2 2 10) simpleGrading (1 1 1)
	hex (47 49 48 46 147 149 148 146) (2 2 10) simpleGrading (1 1 1)
	hex (53 51 49 47 153 151 149 147) (2 2 10) simpleGrading (1 1 1)
	hex (52 50 51 53 152 150 151 153) (2 2 10) simpleGrading (1 1 1)
	hex (42 44 54 56 142 144 154 156) (4 2 10) simpleGrading (0.2 1 1)
	hex (43 45 44 42 143 145 144 142) (4 2 10) simpleGrading (0.2 1 1)
	hex (57 55 45 43 157 155 145 143) (4 2 10) simpleGrading (0.2 1 1)
	hex (56 54 55 57 156 154 155 157) (4 2 10) simpleGrading (0.2 1 1)
	hex (44 46 52 54 144 146 152 154) (4 2 10) simpleGrading (0.2 1 1)
	hex (45 47 46 44 145 147 146 144) (4 2 10) simpleGrading (0.2 1 1)
	hex (55 53 47 45 155 153 147 144) (4 2 10) simpleGrading (0.2 1 1)
	hex (54 52 53 55 154 152 153 155) (4 2 10) simpleGrading (0.2 1 1)
	hex (148 149 151 150 248 249 251 250) (2 2 100) simpleGrading (1 1 1)
	hex (146 148 150 152 246 248 250 252) (2 2 100) simpleGrading (1 1 1)
	hex (147 149 148 146 247 249 248 246) (2 2 100) simpleGrading (1 1 1)
	hex (153 151 149 147 253 251 249 247) (2 2 100) simpleGrading (1 1 1)
	hex (152 150 151 153 252 250 251 253) (2 2 100) simpleGrading (1 1 1)
	hex (62 63 65 64 162 163 165 164) (2 2 10) simpleGrading (1 1 1)
	hex (60 62 64 66 160 162 164 166) (2 2 10) simpleGrading (1 1 1)
	hex (61 63 62 60 161 163 162 160) (2 2 10) simpleGrading (1 1 1)
	hex (67 65 63 61 167 165 163 161) (2 2 10) simpleGrading (1 1 1)
	hex (66 64 65 67 166 164 165 167) (2 2 10) simpleGrading (1 1 1)
	hex (56 58 68 70 156 158 168 170) (4 2 10) simpleGrading (0.2 1 1)
	hex (57 59 58 56 157 159 158 156) (4 2 10) simpleGrading (0.2 1 1)
	hex (71 69 59 57 171 169 159 157) (4 2 10) simpleGrading (0.2 1 1)
	hex (70 68 69 71 170 168 169 171) (4 2 10) simpleGrading (0.2 1 1)
	hex (58 60 66 68 158 160 166 168) (4 2 10) simpleGrading (0.2 1 1)
	hex (59 61 60 58 159 161 160 158) (4 2 10) simpleGrading (0.2 1 1)
	hex (69 67 61 59 169 167 161 158) (4 2 10) simpleGrading (0.2 1 1)
	hex (68 66 67 69 168 166 167 169) (4 2 10) simpleGrading (0.2 1 1)
	hex (162 163 165 164 262 263 265 264) (2 2 100) simpleGrading (1 1 1)
	hex (160 162 164 166 260 262 264 266) (2 2 100) simpleGrading (1 1 1)
	hex (161 163 162 160 261 263 262 260) (2 2 100) simpleGrading (1 1 1)
	hex (167 165 163 161 267 265 263 261) (2 2 100) simpleGrading (1 1 1)
	hex (166 164 165 167 266 264 265 267) (2 2 100) simpleGrading (1 1 1)
	hex (76 77 79 78 176 177 179 178) (2 2 10) simpleGrading (1 1 1)
	hex (74 76 78 80 174 176 178 180) (2 2 10) simpleGrading (1 1 1)
	hex (75 77 76 74 175 177 176 174) (2 2 10) simpleGrading (1 1 1)
	hex (81 79 77 75 181 179 177 175) (2 2 10) simpleGrading (1 1 1)
	hex (80 78 79 81 180 178 179 181) (2 2 10) simpleGrading (1 1 1)
	hex (70 72 82 84 170 172 182 184) (4 2 10) simpleGrading (0.2 1 1)
	hex (71 73 72 70 171 173 172 170) (4 2 10) simpleGrading (0.2 1 1)
	hex (85 83 73 71 185 183 173 171) (4 2 10) simpleGrading (0.2 1 1)
	hex (84 82 83 85 184 182 183 185) (4 2 10) simpleGrading (0.2 1 1)
	hex (72 74 80 82 172 174 180 182) (4 2 10) simpleGrading (0.2 1 1)
	hex (73 75 74 72 173 175 174 172) (4 2 10) simpleGrading (0.2 1 1)
	hex (83 81 75 73 183 181 175 172) (4 2 10) simpleGrading (0.2 1 1)
	hex (82 80 81 83 182 180 181 183) (4 2 10) simpleGrading (0.2 1 1)
	hex (176 177 179 178 276 277 279 278) (2 2 100) simpleGrading (1 1 1)
	hex (174 176 178 180 274 276 278 280) (2 2 100) simpleGrading (1 1 1)
	hex (175 177 176 174 275 277 276 274) (2 2 100) simpleGrading (1 1 1)
	hex (181 179 177 175 281 279 277 275) (2 2 100) simpleGrading (1 1 1)
	hex (180 178 179 181 280 278 279 281) (2 2 100) simpleGrading (1 1 1)
	hex (90 91 93 92 190 191 193 192) (2 2 10) simpleGrading (1 1 1)
	hex (88 90 92 94 188 190 192 194) (2 2 10) simpleGrading (1 1 1)
	hex (89 91 90 88 189 191 190 188) (2 2 10) simpleGrading (1 1 1)
	hex (95 93 91 89 195 193 191 189) (2 2 10) simpleGrading (1 1 1)
	hex (94 92 93 95 194 192 193 195) (2 2 10) simpleGrading (1 1 1)
	hex (84 86 96 98 184 186 196 198) (4 2 10) simpleGrading (0.2 1 1)
	hex (85 87 86 84 185 187 186 184) (4 2 10) simpleGrading (0.2 1 1)
	hex (99 97 87 85 199 197 187 185) (4 2 10) simpleGrading (0.2 1 1)
	hex (98 96 97 99 198 196 197 199) (4 2 10) simpleGrading (0.2 1 1)
	hex (86 88 94 96 186 188 194 196) (4 2 10) simpleGrading (0.2 1 1)
	hex (87 89 88 86 187 189 188 186) (4 2 10) simpleGrading (0.2 1 1)
	hex (97 95 89 87 197 195 189 186) (4 2 10) simpleGrading (0.2 1 1)
	hex (96 94 95 97 196 194 195 197) (4 2 10) simpleGrading (0.2 1 1)
	hex (190 191 193 192 290 291 293 292) (2 2 100) simpleGrading (1 1 1)
	hex (188 190 192 194 288 290 292 294) (2 2 100) simpleGrading (1 1 1)
	hex (189 191 190 188 289 291 290 288) (2 2 100) simpleGrading (1 1 1)
	hex (195 193 191 189 295 293 291 289) (2 2 100) simpleGrading (1 1 1)
	hex (194 192 193 195 294 292 293 295) (2 2 100) simpleGrading (1 1 1)

);

edges
(
	arc 4 5 (52.5 56.5 0)
	arc 5 11 (53.0 57.0 0)
	arc 11 10 (52.5 57.5 0)
	arc 10 4 (52.0 57.0 0)
	arc 104 105 (52.5 56.5 8)
	arc 105 111 (53.0 57.0 8)
	arc 111 110 (52.5 57.5 8)
	arc 110 104 (52.0 57.0 8)
	arc 18 19 (52.5 62.5 0)
	arc 19 25 (53.0 63.0 0)
	arc 25 24 (52.5 63.5 0)
	arc 24 18 (52.0 63.0 0)
	arc 118 119 (52.5 62.5 8)
	arc 119 125 (53.0 63.0 8)
	arc 125 124 (52.5 63.5 8)
	arc 124 118 (52.0 63.0 8)
	arc 32 33 (52.5 68.5 0)
	arc 33 39 (53.0 69.0 0)
	arc 39 38 (52.5 69.5 0)
	arc 38 32 (52.0 69.0 0)
	arc 132 133 (52.5 68.5 8)
	arc 133 139 (53.0 69.0 8)
	arc 139 138 (52.5 69.5 8)
	arc 138 132 (52.0 69.0 8)
	arc 46 47 (52.5 74.5 0)
	arc 47 53 (53.0 75.0 0)
	arc 53 52 (52.5 75.5 0)
	arc 52 46 (52.0 75.0 0)
	arc 146 147 (52.5 74.5 8)
	arc 147 153 (53.0 75.0 8)
	arc 153 152 (52.5 75.5 8)
	arc 152 146 (52.0 75.0 8)
	arc 60 61 (52.5 80.5 0)
	arc 61 67 (53.0 81.0 0)
	arc 67 66 (52.5 81.5 0)
	arc 66 60 (52.0 81.0 0)
	arc 160 161 (52.5 80.5 8)
	arc 161 167 (53.0 81.0 8)
	arc 167 166 (52.5 81.5 8)
	arc 166 160 (52.0 81.0 8)
	arc 74 75 (52.5 86.5 0)
	arc 75 81 (53.0 87.0 0)
	arc 81 80 (52.5 87.5 0)
	arc 80 74 (52.0 87.0 0)
	arc 174 175 (52.5 86.5 8)
	arc 175 181 (53.0 87.0 8)
	arc 181 180 (52.5 87.5 8)
	arc 180 174 (52.0 87.0 8)
	arc 88 89 (52.5 92.5 0)
	arc 89 95 (53.0 93.0 0)
	arc 95 94 (52.5 93.5 0)
	arc 94 88 (52.0 93.0 0)
	arc 188 189 (52.5 92.5 8)
	arc 189 195 (53.0 93.0 8)
	arc 195 194 (52.5 93.5 8)
	arc 194 188 (52.0 93.0 8)
	arc 204 205 (52.5 56.5 88)
	arc 205 211 (53.0 57.0 88)
	arc 211 210 (52.5 57.5 88)
	arc 210 204 (52.0 57.0 88)
	arc 218 219 (52.5 62.5 88)
	arc 219 225 (53.0 63.0 88)
	arc 225 224 (52.5 63.5 88)
	arc 224 218 (52.0 63.0 88)
	arc 232 233 (52.5 68.5 88)
	arc 233 239 (53.0 69.0 88)
	arc 239 238 (52.5 69.5 88)
	arc 238 232 (52.0 69.0 88)
	arc 246 247 (52.5 74.5 88)
	arc 247 253 (53.0 75.0 88)
	arc 253 252 (52.5 75.5 88)
	arc 252 246 (52.0 75.0 88)
	arc 260 261 (52.5 80.5 88)
	arc 261 267 (53.0 81.0 88)
	arc 267 266 (52.5 81.5 88)
	arc 266 260 (52.0 81.0 88)
	arc 274 275 (52.5 86.5 88)
	arc 275 281 (53.0 87.0 88)
	arc 281 280 (52.5 87.5 88)
	arc 280 274 (52.0 87.0 88)
	arc 288 289 (52.5 92.5 88)
	arc 289 295 (53.0 93.0 88)
	arc 295 294 (52.5 93.5 88)
	arc 294 288 (52.0 93.0 88)
	arc 2 3 (52.5 55.5 0)
	arc 3 13 (54.0 57.0 0)
	arc 13 12 (52.5 58.5 0)
	arc 12 2 (51.0 57.0 0)
	arc 102 103 (52.5 55.5 8)
	arc 103 113 (54.0 57.0 8)
	arc 113 112 (52.5 58.5 8)
	arc 112 102 (51.0 57.0 8)
	arc 16 17 (52.5 61.5 0)
	arc 17 27 (54.0 63.0 0)
	arc 27 26 (52.5 64.5 0)
	arc 26 16 (51.0 63.0 0)
	arc 116 117 (52.5 61.5 8)
	arc 117 127 (54.0 63.0 8)
	arc 127 126 (52.5 64.5 8)
	arc 126 116 (51.0 63.0 8)
	arc 30 31 (52.5 67.5 0)
	arc 31 41 (54.0 69.0 0)
	arc 41 40 (52.5 70.5 0)
	arc 40 30 (51.0 69.0 0)
	arc 130 131 (52.5 67.5 8)
	arc 131 141 (54.0 69.0 8)
	arc 141 140 (52.5 70.5 8)
	arc 140 130 (51.0 69.0 8)
	arc 44 45 (52.5 73.5 0)
	arc 45 55 (54.0 75.0 0)
	arc 55 54 (52.5 76.5 0)
	arc 54 44 (51.0 75.0 0)
	arc 144 145 (52.5 73.5 8)
	arc 145 155 (54.0 75.0 8)
	arc 155 154 (52.5 76.5 8)
	arc 154 144 (51.0 75.0 8)
	arc 58 59 (52.5 79.5 0)
	arc 59 69 (54.0 81.0 0)
	arc 69 68 (52.5 82.5 0)
	arc 68 58 (51.0 81.0 0)
	arc 158 159 (52.5 79.5 8)
	arc 159 169 (54.0 81.0 8)
	arc 169 168 (52.5 82.5 8)
	arc 168 158 (51.0 81.0 8)
	arc 72 73 (52.5 85.5 0)
	arc 73 83 (54.0 87.0 0)
	arc 83 82 (52.5 88.5 0)
	arc 82 72 (51.0 87.0 0)
	arc 172 173 (52.5 85.5 8)
	arc 173 183 (54.0 87.0 8)
	arc 183 182 (52.5 88.5 8)
	arc 182 172 (51.0 87.0 8)
	arc 86 87 (52.5 91.5 0)
	arc 87 97 (54.0 93.0 0)
	arc 97 96 (52.5 94.5 0)
	arc 96 86 (51.0 93.0 0)
	arc 186 187 (52.5 91.5 8)
	arc 187 197 (54.0 93.0 8)
	arc 197 196 (52.5 94.5 8)
	arc 196 186 (51.0 93.0 8)
);

patches
(
	patch bristle
	(
		(0 100 114 14)
		(15 115 101 1)
		(100 102 112 114)
		(101 103 102 100)
		(115 113 103 101)
		(114 112 113 115)
		(102 104 110 112)
		(103 105 104 102)
		(113 111 105 103)
		(112 110 111 113)
		(104 204 210 110)
		(105 205 204 104)
		(111 211 205 105)
		(110 210 211 111)
		(206 207 209 208)
		(204 206 208 210)
		(205 207 206 204)
		(211 209 207 205)
		(210 208 209 211)
		(14 114 128 28)
		(29 129 115 15)
		(114 116 126 128)
		(115 117 116 114)
		(129 127 117 115)
		(128 126 127 129)
		(116 118 124 126)
		(117 119 118 116)
		(127 125 119 117)
		(126 124 125 127)
		(118 218 224 124)
		(119 219 218 118)
		(125 225 219 119)
		(124 224 225 125)
		(220 221 223 222)
		(218 220 222 224)
		(219 221 220 218)
		(225 223 221 219)
		(224 222 223 225)
		(28 128 142 42)
		(43 143 129 29)
		(128 130 140 142)
		(129 131 130 128)
		(143 141 131 129)
		(142 140 141 143)
		(130 132 138 140)
		(131 133 132 130)
		(141 139 133 131)
		(140 138 139 141)
		(132 232 238 138)
		(133 233 232 132)
		(139 239 233 133)
		(138 238 239 139)
		(234 235 237 236)
		(232 234 236 238)
		(233 235 234 232)
		(239 237 235 233)
		(238 236 237 239)
		(42 142 156 56)
		(57 157 143 43)
		(142 144 154 156)
		(143 145 144 142)
		(157 155 145 143)
		(156 154 155 157)
		(144 146 152 154)
		(145 147 146 144)
		(155 153 147 145)
		(154 152 153 155)
		(146 246 252 152)
		(147 247 246 146)
		(153 253 247 147)
		(152 252 253 153)
		(248 249 251 250)
		(246 248 250 252)
		(247 249 248 246)
		(253 251 249 247)
		(252 250 251 253)
		(56 156 170 70)
		(71 171 157 57)
		(156 158 168 170)
		(157 159 158 156)
		(171 169 159 157)
		(170 168 169 171)
		(158 160 166 168)
		(159 161 160 158)
		(169 167 161 159)
		(168 166 167 169)
		(160 260 266 166)
		(161 261 260 160)
		(167 267 261 161)
		(166 266 267 167)
		(262 263 265 264)
		(260 262 264 266)
		(261 263 262 260)
		(267 265 263 261)
		(266 264 265 267)
		(70 170 184 84)
		(85 185 171 71)
		(170 172 182 184)
		(171 173 172 170)
		(185 183 173 171)
		(184 182 183 185)
		(172 174 180 182)
		(173 175 174 172)
		(183 181 175 173)
		(182 180 181 183)
		(174 274 280 180)
		(175 275 274 174)
		(181 281 275 175)
		(180 280 281 181)
		(276 277 279 278)
		(274 276 278 280)
		(275 277 276 274)
		(281 279 277 275)
		(280 278 279 281)
		(84 184 198 98)
		(99 199 185 85)
		(184 186 196 198)
		(185 187 186 184)
		(199 197 187 185)
		(198 196 197 199)
		(186 188 194 196)
		(187 189 188 186)
		(197 195 189 187)
		(196 194 195 197)
		(188 288 294 194)
		(189 289 288 188)
		(195 295 289 189)
		(194 294 295 195)
		(290 291 293 292)
		(288 290 292 294)
		(289 291 290 288)
		(295 293 291 289)
		(294 292 293 295)
		(0 1 101 100)
		(99 98 198 199)
	)

	patch plateFix
	(
		(8 9 7 6)
		(10 8 6 4)
		(4 6 7 5)
		(5 7 9 11)
		(11 9 8 10)
		(14 10 4 0)
		(0 4 5 1)
		(1 5 11 15)
		(15 11 10 14)
		(22 23 21 20)
		(24 22 20 18)
		(18 20 21 19)
		(19 21 23 25)
		(25 23 22 24)
		(28 24 18 14)
		(14 18 19 15)
		(15 19 25 29)
		(29 25 24 28)
		(36 37 35 34)
		(38 36 34 32)
		(32 34 35 33)
		(33 35 37 39)
		(39 37 36 38)
		(42 38 32 28)
		(28 32 33 29)
		(29 33 39 43)
		(43 39 38 42)
		(50 51 49 48)
		(52 50 48 46)
		(46 48 49 47)
		(47 49 51 53)
		(53 51 50 52)
		(56 52 46 42)
		(42 46 47 43)
		(43 47 53 57)
		(57 53 52 56)
		(64 65 63 62)
		(66 64 62 60)
		(60 62 63 61)
		(61 63 65 67)
		(67 65 64 66)
		(70 66 60 56)
		(56 60 61 57)
		(57 61 67 71)
		(71 67 66 70)
		(78 79 77 76)
		(80 78 76 74)
		(74 76 77 75)
		(75 77 79 81)
		(81 79 78 80)
		(84 80 74 70)
		(70 74 75 71)
		(71 75 81 85)
		(85 81 80 84)
		(92 93 91 90)
		(94 92 90 88)
		(88 90 91 89)
		(89 91 93 95)
		(95 93 92 94)
		(98 94 88 84)
		(84 88 89 85)
		(85 89 95 99)
		(99 95 94 98)
	)

);

mergePatchPairs
(
);


// ************************************************************************* //

