/*--------------------------------*- C++ -*----------------------------------*\
| =========                 |                                                 |
| \      /  F ield         | foam-extend: Open Source CFD                    |
|  \    /   O peration     | Version:     4.0                                |
|   \  /    A nd           | Web:         http://www.foam-extend.org         |
|    \/     M anipulation  |                                                 |
\*---------------------------------------------------------------------------*/
FoamFile
{
    version     2.0;
    format      ascii;
    class       dictionary;
    object      blockMeshDict;
}
// * * * * * * * * * * * * * * * * * * * * * * * * * * * * * * * * * * * * * //

convertToMeters 1e-6;
vertices
(
	(49.5 33 0)      //0
	(55.5 33 0)      //1
	(49.5 36 0)      //2
	(55.5 36 0)      //3
	(51.0858 37.5858 0)      //4
	(53.9142 37.5858 0)      //5
	(51.7929 38.2929 0)      //6
	(53.2071 38.2929 0)      //7
	(52.005 38.505 0)      //8
	(52.995 38.505 0)      //9
	(52.005 39.495 0)      //10
	(52.995 39.495 0)      //11
	(51.7929 39.7071 0)      //12
	(53.2071 39.7071 0)      //13
	(51.0858 40.4142 0)      //14
	(53.9142 40.4142 0)      //15
	(49.5 42 0)      //16
	(55.5 42 0)      //17
	(49.5 45 0)      //18
	(55.5 45 0)      //19
	(49.5 48 0)      //20
	(55.5 48 0)      //21
	(51.0858 49.5858 0)      //22
	(53.9142 49.5858 0)      //23
	(51.7929 50.2929 0)      //24
	(53.2071 50.2929 0)      //25
	(52.005 50.505 0)      //26
	(52.995 50.505 0)      //27
	(52.005 51.495 0)      //28
	(52.995 51.495 0)      //29
	(51.7929 51.7071 0)      //30
	(53.2071 51.7071 0)      //31
	(51.0858 52.4142 0)      //32
	(53.9142 52.4142 0)      //33
	(49.5 54 0)      //34
	(55.5 54 0)      //35
	(49.5 57 0)      //36
	(55.5 57 0)      //37
	(49.5 60 0)      //38
	(55.5 60 0)      //39
	(51.0858 61.5858 0)      //40
	(53.9142 61.5858 0)      //41
	(51.7929 62.2929 0)      //42
	(53.2071 62.2929 0)      //43
	(52.005 62.505 0)      //44
	(52.995 62.505 0)      //45
	(52.005 63.495 0)      //46
	(52.995 63.495 0)      //47
	(51.7929 63.7071 0)      //48
	(53.2071 63.7071 0)      //49
	(51.0858 64.4142 0)      //50
	(53.9142 64.4142 0)      //51
	(49.5 66 0)      //52
	(55.5 66 0)      //53
	(49.5 69 0)      //54
	(55.5 69 0)      //55
	(49.5 72 0)      //56
	(55.5 72 0)      //57
	(51.0858 73.5858 0)      //58
	(53.9142 73.5858 0)      //59
	(51.7929 74.2929 0)      //60
	(53.2071 74.2929 0)      //61
	(52.005 74.505 0)      //62
	(52.995 74.505 0)      //63
	(52.005 75.495 0)      //64
	(52.995 75.495 0)      //65
	(51.7929 75.7071 0)      //66
	(53.2071 75.7071 0)      //67
	(51.0858 76.4142 0)      //68
	(53.9142 76.4142 0)      //69
	(49.5 78 0)      //70
	(55.5 78 0)      //71
	(49.5 81 0)      //72
	(55.5 81 0)      //73
	(49.5 84 0)      //74
	(55.5 84 0)      //75
	(51.0858 85.5858 0)      //76
	(53.9142 85.5858 0)      //77
	(51.7929 86.2929 0)      //78
	(53.2071 86.2929 0)      //79
	(52.005 86.505 0)      //80
	(52.995 86.505 0)      //81
	(52.005 87.495 0)      //82
	(52.995 87.495 0)      //83
	(51.7929 87.7071 0)      //84
	(53.2071 87.7071 0)      //85
	(51.0858 88.4142 0)      //86
	(53.9142 88.4142 0)      //87
	(49.5 90 0)      //88
	(55.5 90 0)      //89
	(49.5 93 0)      //90
	(55.5 93 0)      //91
	(49.5 96 0)      //92
	(55.5 96 0)      //93
	(51.0858 97.5858 0)      //94
	(53.9142 97.5858 0)      //95
	(51.7929 98.2929 0)      //96
	(53.2071 98.2929 0)      //97
	(52.005 98.505 0)      //98
	(52.995 98.505 0)      //99
	(52.005 99.495 0)      //100
	(52.995 99.495 0)      //101
	(51.7929 99.7071 0)      //102
	(53.2071 99.7071 0)      //103
	(51.0858 100.4142 0)      //104
	(53.9142 100.4142 0)      //105
	(49.5 102 0)      //106
	(55.5 102 0)      //107
	(49.5 105 0)      //108
	(55.5 105 0)      //109
	(49.5 108 0)      //110
	(55.5 108 0)      //111
	(51.0858 109.5858 0)      //112
	(53.9142 109.5858 0)      //113
	(51.7929 110.2929 0)      //114
	(53.2071 110.2929 0)      //115
	(52.005 110.505 0)      //116
	(52.995 110.505 0)      //117
	(52.005 111.495 0)      //118
	(52.995 111.495 0)      //119
	(51.7929 111.7071 0)      //120
	(53.2071 111.7071 0)      //121
	(51.0858 112.4142 0)      //122
	(53.9142 112.4142 0)      //123
	(49.5 114 0)      //124
	(55.5 114 0)      //125
	(49.5 117 0)      //126
	(55.5 117 0)      //127
	(49.5 33 4)      //128
	(55.5 33 4)      //129
	(49.5 36 4)      //130
	(55.5 36 4)      //131
	(51.0858 37.5858 4)      //132
	(53.9142 37.5858 4)      //133
	(51.7929 38.2929 4)      //134
	(53.2071 38.2929 4)      //135
	(52.005 38.505 4)      //136
	(52.995 38.505 4)      //137
	(52.005 39.495 4)      //138
	(52.995 39.495 4)      //139
	(51.7929 39.7071 4)      //140
	(53.2071 39.7071 4)      //141
	(51.0858 40.4142 4)      //142
	(53.9142 40.4142 4)      //143
	(49.5 42 4)      //144
	(55.5 42 4)      //145
	(49.5 45 4)      //146
	(55.5 45 4)      //147
	(49.5 48 4)      //148
	(55.5 48 4)      //149
	(51.0858 49.5858 4)      //150
	(53.9142 49.5858 4)      //151
	(51.7929 50.2929 4)      //152
	(53.2071 50.2929 4)      //153
	(52.005 50.505 4)      //154
	(52.995 50.505 4)      //155
	(52.005 51.495 4)      //156
	(52.995 51.495 4)      //157
	(51.7929 51.7071 4)      //158
	(53.2071 51.7071 4)      //159
	(51.0858 52.4142 4)      //160
	(53.9142 52.4142 4)      //161
	(49.5 54 4)      //162
	(55.5 54 4)      //163
	(49.5 57 4)      //164
	(55.5 57 4)      //165
	(49.5 60 4)      //166
	(55.5 60 4)      //167
	(51.0858 61.5858 4)      //168
	(53.9142 61.5858 4)      //169
	(51.7929 62.2929 4)      //170
	(53.2071 62.2929 4)      //171
	(52.005 62.505 4)      //172
	(52.995 62.505 4)      //173
	(52.005 63.495 4)      //174
	(52.995 63.495 4)      //175
	(51.7929 63.7071 4)      //176
	(53.2071 63.7071 4)      //177
	(51.0858 64.4142 4)      //178
	(53.9142 64.4142 4)      //179
	(49.5 66 4)      //180
	(55.5 66 4)      //181
	(49.5 69 4)      //182
	(55.5 69 4)      //183
	(49.5 72 4)      //184
	(55.5 72 4)      //185
	(51.0858 73.5858 4)      //186
	(53.9142 73.5858 4)      //187
	(51.7929 74.2929 4)      //188
	(53.2071 74.2929 4)      //189
	(52.005 74.505 4)      //190
	(52.995 74.505 4)      //191
	(52.005 75.495 4)      //192
	(52.995 75.495 4)      //193
	(51.7929 75.7071 4)      //194
	(53.2071 75.7071 4)      //195
	(51.0858 76.4142 4)      //196
	(53.9142 76.4142 4)      //197
	(49.5 78 4)      //198
	(55.5 78 4)      //199
	(49.5 81 4)      //200
	(55.5 81 4)      //201
	(49.5 84 4)      //202
	(55.5 84 4)      //203
	(51.0858 85.5858 4)      //204
	(53.9142 85.5858 4)      //205
	(51.7929 86.2929 4)      //206
	(53.2071 86.2929 4)      //207
	(52.005 86.505 4)      //208
	(52.995 86.505 4)      //209
	(52.005 87.495 4)      //210
	(52.995 87.495 4)      //211
	(51.7929 87.7071 4)      //212
	(53.2071 87.7071 4)      //213
	(51.0858 88.4142 4)      //214
	(53.9142 88.4142 4)      //215
	(49.5 90 4)      //216
	(55.5 90 4)      //217
	(49.5 93 4)      //218
	(55.5 93 4)      //219
	(49.5 96 4)      //220
	(55.5 96 4)      //221
	(51.0858 97.5858 4)      //222
	(53.9142 97.5858 4)      //223
	(51.7929 98.2929 4)      //224
	(53.2071 98.2929 4)      //225
	(52.005 98.505 4)      //226
	(52.995 98.505 4)      //227
	(52.005 99.495 4)      //228
	(52.995 99.495 4)      //229
	(51.7929 99.7071 4)      //230
	(53.2071 99.7071 4)      //231
	(51.0858 100.4142 4)      //232
	(53.9142 100.4142 4)      //233
	(49.5 102 4)      //234
	(55.5 102 4)      //235
	(49.5 105 4)      //236
	(55.5 105 4)      //237
	(49.5 108 4)      //238
	(55.5 108 4)      //239
	(51.0858 109.5858 4)      //240
	(53.9142 109.5858 4)      //241
	(51.7929 110.2929 4)      //242
	(53.2071 110.2929 4)      //243
	(52.005 110.505 4)      //244
	(52.995 110.505 4)      //245
	(52.005 111.495 4)      //246
	(52.995 111.495 4)      //247
	(51.7929 111.7071 4)      //248
	(53.2071 111.7071 4)      //249
	(51.0858 112.4142 4)      //250
	(53.9142 112.4142 4)      //251
	(49.5 114 4)      //252
	(55.5 114 4)      //253
	(49.5 117 4)      //254
	(55.5 117 4)      //255
	(49.5 33 144)      //256
	(55.5 33 144)      //257
	(49.5 36 144)      //258
	(55.5 36 144)      //259
	(51.0858 37.5858 144)      //260
	(53.9142 37.5858 144)      //261
	(51.7929 38.2929 144)      //262
	(53.2071 38.2929 144)      //263
	(52.005 38.505 144)      //264
	(52.995 38.505 144)      //265
	(52.005 39.495 144)      //266
	(52.995 39.495 144)      //267
	(51.7929 39.7071 144)      //268
	(53.2071 39.7071 144)      //269
	(51.0858 40.4142 144)      //270
	(53.9142 40.4142 144)      //271
	(49.5 42 144)      //272
	(55.5 42 144)      //273
	(49.5 45 144)      //274
	(55.5 45 144)      //275
	(49.5 48 144)      //276
	(55.5 48 144)      //277
	(51.0858 49.5858 144)      //278
	(53.9142 49.5858 144)      //279
	(51.7929 50.2929 144)      //280
	(53.2071 50.2929 144)      //281
	(52.005 50.505 144)      //282
	(52.995 50.505 144)      //283
	(52.005 51.495 144)      //284
	(52.995 51.495 144)      //285
	(51.7929 51.7071 144)      //286
	(53.2071 51.7071 144)      //287
	(51.0858 52.4142 144)      //288
	(53.9142 52.4142 144)      //289
	(49.5 54 144)      //290
	(55.5 54 144)      //291
	(49.5 57 144)      //292
	(55.5 57 144)      //293
	(49.5 60 144)      //294
	(55.5 60 144)      //295
	(51.0858 61.5858 144)      //296
	(53.9142 61.5858 144)      //297
	(51.7929 62.2929 144)      //298
	(53.2071 62.2929 144)      //299
	(52.005 62.505 144)      //300
	(52.995 62.505 144)      //301
	(52.005 63.495 144)      //302
	(52.995 63.495 144)      //303
	(51.7929 63.7071 144)      //304
	(53.2071 63.7071 144)      //305
	(51.0858 64.4142 144)      //306
	(53.9142 64.4142 144)      //307
	(49.5 66 144)      //308
	(55.5 66 144)      //309
	(49.5 69 144)      //310
	(55.5 69 144)      //311
	(49.5 72 144)      //312
	(55.5 72 144)      //313
	(51.0858 73.5858 144)      //314
	(53.9142 73.5858 144)      //315
	(51.7929 74.2929 144)      //316
	(53.2071 74.2929 144)      //317
	(52.005 74.505 144)      //318
	(52.995 74.505 144)      //319
	(52.005 75.495 144)      //320
	(52.995 75.495 144)      //321
	(51.7929 75.7071 144)      //322
	(53.2071 75.7071 144)      //323
	(51.0858 76.4142 144)      //324
	(53.9142 76.4142 144)      //325
	(49.5 78 144)      //326
	(55.5 78 144)      //327
	(49.5 81 144)      //328
	(55.5 81 144)      //329
	(49.5 84 144)      //330
	(55.5 84 144)      //331
	(51.0858 85.5858 144)      //332
	(53.9142 85.5858 144)      //333
	(51.7929 86.2929 144)      //334
	(53.2071 86.2929 144)      //335
	(52.005 86.505 144)      //336
	(52.995 86.505 144)      //337
	(52.005 87.495 144)      //338
	(52.995 87.495 144)      //339
	(51.7929 87.7071 144)      //340
	(53.2071 87.7071 144)      //341
	(51.0858 88.4142 144)      //342
	(53.9142 88.4142 144)      //343
	(49.5 90 144)      //344
	(55.5 90 144)      //345
	(49.5 93 144)      //346
	(55.5 93 144)      //347
	(49.5 96 144)      //348
	(55.5 96 144)      //349
	(51.0858 97.5858 144)      //350
	(53.9142 97.5858 144)      //351
	(51.7929 98.2929 144)      //352
	(53.2071 98.2929 144)      //353
	(52.005 98.505 144)      //354
	(52.995 98.505 144)      //355
	(52.005 99.495 144)      //356
	(52.995 99.495 144)      //357
	(51.7929 99.7071 144)      //358
	(53.2071 99.7071 144)      //359
	(51.0858 100.4142 144)      //360
	(53.9142 100.4142 144)      //361
	(49.5 102 144)      //362
	(55.5 102 144)      //363
	(49.5 105 144)      //364
	(55.5 105 144)      //365
	(49.5 108 144)      //366
	(55.5 108 144)      //367
	(51.0858 109.5858 144)      //368
	(53.9142 109.5858 144)      //369
	(51.7929 110.2929 144)      //370
	(53.2071 110.2929 144)      //371
	(52.005 110.505 144)      //372
	(52.995 110.505 144)      //373
	(52.005 111.495 144)      //374
	(52.995 111.495 144)      //375
	(51.7929 111.7071 144)      //376
	(53.2071 111.7071 144)      //377
	(51.0858 112.4142 144)      //378
	(53.9142 112.4142 144)      //379
	(49.5 114 144)      //380
	(55.5 114 144)      //381
	(49.5 117 144)      //382
	(55.5 117 144)      //383

);

blocks
(
	hex (8 9 11 10 136 137 139 138) (4 4 3) simpleGrading (1 1 1)
	hex (6 8 10 12 134 136 138 140) (2 4 3) simpleGrading (1 1 1)
	hex (7 9 8 6 135 137 136 134) (2 4 3) simpleGrading (1 1 1)
	hex (13 11 9 7 141 139 137 135) (2 4 3) simpleGrading (1 1 1)
	hex (12 10 11 13 140 138 139 141) (2 4 3) simpleGrading (1 1 1)
	hex (0 1 3 2 128 129 131 130) (4 2 3) simpleGrading (1 1 1)
	hex (16 17 19 18 144 145 147 146) (4 2 3) simpleGrading (1 1 1)
	hex (2 4 14 16 130 132 142 144) (2 4 3) simpleGrading (0.5 1 1)
	hex (3 5 4 2 131 133 132 130) (2 4 3) simpleGrading (0.5 1 1)
	hex (17 15 5 3 145 143 133 131) (2 4 3) simpleGrading (0.5 1 1)
	hex (16 14 15 17 144 142 143 145) (2 4 3) simpleGrading (0.5 1 1)
	hex (4 6 12 14 132 134 140 142) (2 4 3) simpleGrading (1 1 1)
	hex (5 7 6 4 133 135 134 132) (2 4 3) simpleGrading (1 1 1)
	hex (15 13 7 5 143 141 135 133) (2 4 3) simpleGrading (1 1 1)
	hex (14 12 13 15 142 140 141 143) (2 4 3) simpleGrading (1 1 1)
	hex (136 137 139 138 264 265 267 266) (4 4 150) simpleGrading (1 1 1)
	hex (134 136 138 140 262 264 266 268) (2 4 150) simpleGrading (1 1 1)
	hex (135 137 136 134 263 265 264 262) (2 4 150) simpleGrading (1 1 1)
	hex (141 139 137 135 269 267 265 263) (2 4 150) simpleGrading (1 1 1)
	hex (140 138 139 141 268 266 267 269) (2 4 150) simpleGrading (1 1 1)
	hex (26 27 29 28 154 155 157 156) (4 4 3) simpleGrading (1 1 1)
	hex (24 26 28 30 152 154 156 158) (2 4 3) simpleGrading (1 1 1)
	hex (25 27 26 24 153 155 154 152) (2 4 3) simpleGrading (1 1 1)
	hex (31 29 27 25 159 157 155 153) (2 4 3) simpleGrading (1 1 1)
	hex (30 28 29 31 158 156 157 159) (2 4 3) simpleGrading (1 1 1)
	hex (18 19 21 20 146 147 149 148) (4 2 3) simpleGrading (1 1 1)
	hex (34 35 37 36 162 163 165 164) (4 2 3) simpleGrading (1 1 1)
	hex (20 22 32 34 148 150 160 162) (2 4 3) simpleGrading (0.5 1 1)
	hex (21 23 22 20 149 151 150 148) (2 4 3) simpleGrading (0.5 1 1)
	hex (35 33 23 21 163 161 151 149) (2 4 3) simpleGrading (0.5 1 1)
	hex (34 32 33 35 162 160 161 163) (2 4 3) simpleGrading (0.5 1 1)
	hex (22 24 30 32 150 152 158 160) (2 4 3) simpleGrading (1 1 1)
	hex (23 25 24 22 151 153 152 150) (2 4 3) simpleGrading (1 1 1)
	hex (33 31 25 23 161 159 153 151) (2 4 3) simpleGrading (1 1 1)
	hex (32 30 31 33 160 158 159 161) (2 4 3) simpleGrading (1 1 1)
	hex (154 155 157 156 282 283 285 284) (4 4 150) simpleGrading (1 1 1)
	hex (152 154 156 158 280 282 284 286) (2 4 150) simpleGrading (1 1 1)
	hex (153 155 154 152 281 283 282 280) (2 4 150) simpleGrading (1 1 1)
	hex (159 157 155 153 287 285 283 281) (2 4 150) simpleGrading (1 1 1)
	hex (158 156 157 159 286 284 285 287) (2 4 150) simpleGrading (1 1 1)
	hex (44 45 47 46 172 173 175 174) (4 4 3) simpleGrading (1 1 1)
	hex (42 44 46 48 170 172 174 176) (2 4 3) simpleGrading (1 1 1)
	hex (43 45 44 42 171 173 172 170) (2 4 3) simpleGrading (1 1 1)
	hex (49 47 45 43 177 175 173 171) (2 4 3) simpleGrading (1 1 1)
	hex (48 46 47 49 176 174 175 177) (2 4 3) simpleGrading (1 1 1)
	hex (36 37 39 38 164 165 167 166) (4 2 3) simpleGrading (1 1 1)
	hex (52 53 55 54 180 181 183 182) (4 2 3) simpleGrading (1 1 1)
	hex (38 40 50 52 166 168 178 180) (2 4 3) simpleGrading (0.5 1 1)
	hex (39 41 40 38 167 169 168 166) (2 4 3) simpleGrading (0.5 1 1)
	hex (53 51 41 39 181 179 169 167) (2 4 3) simpleGrading (0.5 1 1)
	hex (52 50 51 53 180 178 179 181) (2 4 3) simpleGrading (0.5 1 1)
	hex (40 42 48 50 168 170 176 178) (2 4 3) simpleGrading (1 1 1)
	hex (41 43 42 40 169 171 170 168) (2 4 3) simpleGrading (1 1 1)
	hex (51 49 43 41 179 177 171 169) (2 4 3) simpleGrading (1 1 1)
	hex (50 48 49 51 178 176 177 179) (2 4 3) simpleGrading (1 1 1)
	hex (172 173 175 174 300 301 303 302) (4 4 150) simpleGrading (1 1 1)
	hex (170 172 174 176 298 300 302 304) (2 4 150) simpleGrading (1 1 1)
	hex (171 173 172 170 299 301 300 298) (2 4 150) simpleGrading (1 1 1)
	hex (177 175 173 171 305 303 301 299) (2 4 150) simpleGrading (1 1 1)
	hex (176 174 175 177 304 302 303 305) (2 4 150) simpleGrading (1 1 1)
	hex (62 63 65 64 190 191 193 192) (4 4 3) simpleGrading (1 1 1)
	hex (60 62 64 66 188 190 192 194) (2 4 3) simpleGrading (1 1 1)
	hex (61 63 62 60 189 191 190 188) (2 4 3) simpleGrading (1 1 1)
	hex (67 65 63 61 195 193 191 189) (2 4 3) simpleGrading (1 1 1)
	hex (66 64 65 67 194 192 193 195) (2 4 3) simpleGrading (1 1 1)
	hex (54 55 57 56 182 183 185 184) (4 2 3) simpleGrading (1 1 1)
	hex (70 71 73 72 198 199 201 200) (4 2 3) simpleGrading (1 1 1)
	hex (56 58 68 70 184 186 196 198) (2 4 3) simpleGrading (0.5 1 1)
	hex (57 59 58 56 185 187 186 184) (2 4 3) simpleGrading (0.5 1 1)
	hex (71 69 59 57 199 197 187 185) (2 4 3) simpleGrading (0.5 1 1)
	hex (70 68 69 71 198 196 197 199) (2 4 3) simpleGrading (0.5 1 1)
	hex (58 60 66 68 186 188 194 196) (2 4 3) simpleGrading (1 1 1)
	hex (59 61 60 58 187 189 188 186) (2 4 3) simpleGrading (1 1 1)
	hex (69 67 61 59 197 195 189 187) (2 4 3) simpleGrading (1 1 1)
	hex (68 66 67 69 196 194 195 197) (2 4 3) simpleGrading (1 1 1)
	hex (190 191 193 192 318 319 321 320) (4 4 150) simpleGrading (1 1 1)
	hex (188 190 192 194 316 318 320 322) (2 4 150) simpleGrading (1 1 1)
	hex (189 191 190 188 317 319 318 316) (2 4 150) simpleGrading (1 1 1)
	hex (195 193 191 189 323 321 319 317) (2 4 150) simpleGrading (1 1 1)
	hex (194 192 193 195 322 320 321 323) (2 4 150) simpleGrading (1 1 1)
	hex (80 81 83 82 208 209 211 210) (4 4 3) simpleGrading (1 1 1)
	hex (78 80 82 84 206 208 210 212) (2 4 3) simpleGrading (1 1 1)
	hex (79 81 80 78 207 209 208 206) (2 4 3) simpleGrading (1 1 1)
	hex (85 83 81 79 213 211 209 207) (2 4 3) simpleGrading (1 1 1)
	hex (84 82 83 85 212 210 211 213) (2 4 3) simpleGrading (1 1 1)
	hex (72 73 75 74 200 201 203 202) (4 2 3) simpleGrading (1 1 1)
	hex (88 89 91 90 216 217 219 218) (4 2 3) simpleGrading (1 1 1)
	hex (74 76 86 88 202 204 214 216) (2 4 3) simpleGrading (0.5 1 1)
	hex (75 77 76 74 203 205 204 202) (2 4 3) simpleGrading (0.5 1 1)
	hex (89 87 77 75 217 215 205 203) (2 4 3) simpleGrading (0.5 1 1)
	hex (88 86 87 89 216 214 215 217) (2 4 3) simpleGrading (0.5 1 1)
	hex (76 78 84 86 204 206 212 214) (2 4 3) simpleGrading (1 1 1)
	hex (77 79 78 76 205 207 206 204) (2 4 3) simpleGrading (1 1 1)
	hex (87 85 79 77 215 213 207 205) (2 4 3) simpleGrading (1 1 1)
	hex (86 84 85 87 214 212 213 215) (2 4 3) simpleGrading (1 1 1)
	hex (208 209 211 210 336 337 339 338) (4 4 150) simpleGrading (1 1 1)
	hex (206 208 210 212 334 336 338 340) (2 4 150) simpleGrading (1 1 1)
	hex (207 209 208 206 335 337 336 334) (2 4 150) simpleGrading (1 1 1)
	hex (213 211 209 207 341 339 337 335) (2 4 150) simpleGrading (1 1 1)
	hex (212 210 211 213 340 338 339 341) (2 4 150) simpleGrading (1 1 1)
	hex (98 99 101 100 226 227 229 228) (4 4 3) simpleGrading (1 1 1)
	hex (96 98 100 102 224 226 228 230) (2 4 3) simpleGrading (1 1 1)
	hex (97 99 98 96 225 227 226 224) (2 4 3) simpleGrading (1 1 1)
	hex (103 101 99 97 231 229 227 225) (2 4 3) simpleGrading (1 1 1)
	hex (102 100 101 103 230 228 229 231) (2 4 3) simpleGrading (1 1 1)
	hex (90 91 93 92 218 219 221 220) (4 2 3) simpleGrading (1 1 1)
	hex (106 107 109 108 234 235 237 236) (4 2 3) simpleGrading (1 1 1)
	hex (92 94 104 106 220 222 232 234) (2 4 3) simpleGrading (0.5 1 1)
	hex (93 95 94 92 221 223 222 220) (2 4 3) simpleGrading (0.5 1 1)
	hex (107 105 95 93 235 233 223 221) (2 4 3) simpleGrading (0.5 1 1)
	hex (106 104 105 107 234 232 233 235) (2 4 3) simpleGrading (0.5 1 1)
	hex (94 96 102 104 222 224 230 232) (2 4 3) simpleGrading (1 1 1)
	hex (95 97 96 94 223 225 224 222) (2 4 3) simpleGrading (1 1 1)
	hex (105 103 97 95 233 231 225 223) (2 4 3) simpleGrading (1 1 1)
	hex (104 102 103 105 232 230 231 233) (2 4 3) simpleGrading (1 1 1)
	hex (226 227 229 228 354 355 357 356) (4 4 150) simpleGrading (1 1 1)
	hex (224 226 228 230 352 354 356 358) (2 4 150) simpleGrading (1 1 1)
	hex (225 227 226 224 353 355 354 352) (2 4 150) simpleGrading (1 1 1)
	hex (231 229 227 225 359 357 355 353) (2 4 150) simpleGrading (1 1 1)
	hex (230 228 229 231 358 356 357 359) (2 4 150) simpleGrading (1 1 1)
	hex (116 117 119 118 244 245 247 246) (4 4 3) simpleGrading (1 1 1)
	hex (114 116 118 120 242 244 246 248) (2 4 3) simpleGrading (1 1 1)
	hex (115 117 116 114 243 245 244 242) (2 4 3) simpleGrading (1 1 1)
	hex (121 119 117 115 249 247 245 243) (2 4 3) simpleGrading (1 1 1)
	hex (120 118 119 121 248 246 247 249) (2 4 3) simpleGrading (1 1 1)
	hex (108 109 111 110 236 237 239 238) (4 2 3) simpleGrading (1 1 1)
	hex (124 125 127 126 252 253 255 254) (4 2 3) simpleGrading (1 1 1)
	hex (110 112 122 124 238 240 250 252) (2 4 3) simpleGrading (0.5 1 1)
	hex (111 113 112 110 239 241 240 238) (2 4 3) simpleGrading (0.5 1 1)
	hex (125 123 113 111 253 251 241 239) (2 4 3) simpleGrading (0.5 1 1)
	hex (124 122 123 125 252 250 251 253) (2 4 3) simpleGrading (0.5 1 1)
	hex (112 114 120 122 240 242 248 250) (2 4 3) simpleGrading (1 1 1)
	hex (113 115 114 112 241 243 242 240) (2 4 3) simpleGrading (1 1 1)
	hex (123 121 115 113 251 249 243 241) (2 4 3) simpleGrading (1 1 1)
	hex (122 120 121 123 250 248 249 251) (2 4 3) simpleGrading (1 1 1)
	hex (244 245 247 246 372 373 375 374) (4 4 150) simpleGrading (1 1 1)
	hex (242 244 246 248 370 372 374 376) (2 4 150) simpleGrading (1 1 1)
	hex (243 245 244 242 371 373 372 370) (2 4 150) simpleGrading (1 1 1)
	hex (249 247 245 243 377 375 373 371) (2 4 150) simpleGrading (1 1 1)
	hex (248 246 247 249 376 374 375 377) (2 4 150) simpleGrading (1 1 1)

);

edges
(
	arc 6 7 (52.5 38.0 0)
	arc 7 13 (53.5 39.0 0)
	arc 13 12 (52.5 40.0 0)
	arc 12 6 (51.5 39.0 0)
	arc 134 135 (52.5 38.0 4)
	arc 135 141 (53.5 39.0 4)
	arc 141 140 (52.5 40.0 4)
	arc 140 134 (51.5 39.0 4)
	arc 24 25 (52.5 50.0 0)
	arc 25 31 (53.5 51.0 0)
	arc 31 30 (52.5 52.0 0)
	arc 30 24 (51.5 51.0 0)
	arc 152 153 (52.5 50.0 4)
	arc 153 159 (53.5 51.0 4)
	arc 159 158 (52.5 52.0 4)
	arc 158 152 (51.5 51.0 4)
	arc 42 43 (52.5 62.0 0)
	arc 43 49 (53.5 63.0 0)
	arc 49 48 (52.5 64.0 0)
	arc 48 42 (51.5 63.0 0)
	arc 170 171 (52.5 62.0 4)
	arc 171 177 (53.5 63.0 4)
	arc 177 176 (52.5 64.0 4)
	arc 176 170 (51.5 63.0 4)
	arc 60 61 (52.5 74.0 0)
	arc 61 67 (53.5 75.0 0)
	arc 67 66 (52.5 76.0 0)
	arc 66 60 (51.5 75.0 0)
	arc 188 189 (52.5 74.0 4)
	arc 189 195 (53.5 75.0 4)
	arc 195 194 (52.5 76.0 4)
	arc 194 188 (51.5 75.0 4)
	arc 78 79 (52.5 86.0 0)
	arc 79 85 (53.5 87.0 0)
	arc 85 84 (52.5 88.0 0)
	arc 84 78 (51.5 87.0 0)
	arc 206 207 (52.5 86.0 4)
	arc 207 213 (53.5 87.0 4)
	arc 213 212 (52.5 88.0 4)
	arc 212 206 (51.5 87.0 4)
	arc 96 97 (52.5 98.0 0)
	arc 97 103 (53.5 99.0 0)
	arc 103 102 (52.5 100.0 0)
	arc 102 96 (51.5 99.0 0)
	arc 224 225 (52.5 98.0 4)
	arc 225 231 (53.5 99.0 4)
	arc 231 230 (52.5 100.0 4)
	arc 230 224 (51.5 99.0 4)
	arc 114 115 (52.5 110.0 0)
	arc 115 121 (53.5 111.0 0)
	arc 121 120 (52.5 112.0 0)
	arc 120 114 (51.5 111.0 0)
	arc 242 243 (52.5 110.0 4)
	arc 243 249 (53.5 111.0 4)
	arc 249 248 (52.5 112.0 4)
	arc 248 242 (51.5 111.0 4)
	arc 262 263 (52.5 38.0 144)
	arc 263 269 (53.5 39.0 144)
	arc 269 268 (52.5 40.0 144)
	arc 268 262 (51.5 39.0 144)
	arc 280 281 (52.5 50.0 144)
	arc 281 287 (53.5 51.0 144)
	arc 287 286 (52.5 52.0 144)
	arc 286 280 (51.5 51.0 144)
	arc 298 299 (52.5 62.0 144)
	arc 299 305 (53.5 63.0 144)
	arc 305 304 (52.5 64.0 144)
	arc 304 298 (51.5 63.0 144)
	arc 316 317 (52.5 74.0 144)
	arc 317 323 (53.5 75.0 144)
	arc 323 322 (52.5 76.0 144)
	arc 322 316 (51.5 75.0 144)
	arc 334 335 (52.5 86.0 144)
	arc 335 341 (53.5 87.0 144)
	arc 341 340 (52.5 88.0 144)
	arc 340 334 (51.5 87.0 144)
	arc 352 353 (52.5 98.0 144)
	arc 353 359 (53.5 99.0 144)
	arc 359 358 (52.5 100.0 144)
	arc 358 352 (51.5 99.0 144)
	arc 370 371 (52.5 110.0 144)
	arc 371 377 (53.5 111.0 144)
	arc 377 376 (52.5 112.0 144)
	arc 376 370 (51.5 111.0 144)
	arc 4 5 (52.5 37.0 0)
	arc 5 15 (54.5 39.0 0)
	arc 15 14 (52.5 41.0 0)
	arc 14 4 (50.5 39.0 0)
	arc 132 133 (52.5 37.0 4)
	arc 133 143 (54.5 39.0 4)
	arc 143 142 (52.5 41.0 4)
	arc 142 132 (50.5 39.0 4)
	arc 22 23 (52.5 49.0 0)
	arc 23 33 (54.5 51.0 0)
	arc 33 32 (52.5 53.0 0)
	arc 32 22 (50.5 51.0 0)
	arc 150 151 (52.5 49.0 4)
	arc 151 161 (54.5 51.0 4)
	arc 161 160 (52.5 53.0 4)
	arc 160 150 (50.5 51.0 4)
	arc 40 41 (52.5 61.0 0)
	arc 41 51 (54.5 63.0 0)
	arc 51 50 (52.5 65.0 0)
	arc 50 40 (50.5 63.0 0)
	arc 168 169 (52.5 61.0 4)
	arc 169 179 (54.5 63.0 4)
	arc 179 178 (52.5 65.0 4)
	arc 178 168 (50.5 63.0 4)
	arc 58 59 (52.5 73.0 0)
	arc 59 69 (54.5 75.0 0)
	arc 69 68 (52.5 77.0 0)
	arc 68 58 (50.5 75.0 0)
	arc 186 187 (52.5 73.0 4)
	arc 187 197 (54.5 75.0 4)
	arc 197 196 (52.5 77.0 4)
	arc 196 186 (50.5 75.0 4)
	arc 76 77 (52.5 85.0 0)
	arc 77 87 (54.5 87.0 0)
	arc 87 86 (52.5 89.0 0)
	arc 86 76 (50.5 87.0 0)
	arc 204 205 (52.5 85.0 4)
	arc 205 215 (54.5 87.0 4)
	arc 215 214 (52.5 89.0 4)
	arc 214 204 (50.5 87.0 4)
	arc 94 95 (52.5 97.0 0)
	arc 95 105 (54.5 99.0 0)
	arc 105 104 (52.5 101.0 0)
	arc 104 94 (50.5 99.0 0)
	arc 222 223 (52.5 97.0 4)
	arc 223 233 (54.5 99.0 4)
	arc 233 232 (52.5 101.0 4)
	arc 232 222 (50.5 99.0 4)
	arc 112 113 (52.5 109.0 0)
	arc 113 123 (54.5 111.0 0)
	arc 123 122 (52.5 113.0 0)
	arc 122 112 (50.5 111.0 0)
	arc 240 241 (52.5 109.0 4)
	arc 241 251 (54.5 111.0 4)
	arc 251 250 (52.5 113.0 4)
	arc 250 240 (50.5 111.0 4)
);

patches
(
	patch bristle
	(
		(0 128 130 2)
		(3 131 129 1 )
		(2 130 144 16)
		(17 145 131 3 )
		(16 144 146 18)
		(19 147 145 17 )
		(18 146 148 20)
		(21 149 147 19 )
		(20 148 162 34)
		(35 163 149 21 )
		(34 162 164 36)
		(37 165 163 35 )
		(36 164 166 38)
		(39 167 165 37 )
		(38 166 180 52)
		(53 181 167 39 )
		(52 180 182 54)
		(55 183 181 53 )
		(54 182 184 56)
		(57 185 183 55 )
		(56 184 198 70)
		(71 199 185 57 )
		(70 198 200 72)
		(73 201 199 71 )
		(72 200 202 74)
		(75 203 201 73 )
		(74 202 216 88)
		(89 217 203 75 )
		(88 216 218 90)
		(91 219 217 89 )
		(90 218 220 92)
		(93 221 219 91 )
		(92 220 234 106)
		(107 235 221 93 )
		(106 234 236 108)
		(109 237 235 107 )
		(108 236 238 110)
		(111 239 237 109 )
		(110 238 252 124)
		(125 253 239 111 )
		(124 252 254 126)
		(127 255 253 125 )
		(130 132 142 144)
		(131 133 132 130)
		(145 143 133 131)
		(144 142 143 145)
		(128 129 131 130)
		(144 145 147 146)
		(132 134 140 142)
		(133 135 134 132)
		(143 141 135 133)
		(142 140 141 143)
		(134 262 268 140)
		(135 263 262 134)
		(141 269 263 135)
		(140 268 269 141)
		(264 265 267 266)
		(262 264 266 268)
		(263 265 264 262)
		(269 267 265 263)
		(268 266 267 269)
		(148 150 160 162)
		(149 151 150 148)
		(163 161 151 149)
		(162 160 161 163)
		(146 147 149 148)
		(162 163 165 164)
		(150 152 158 160)
		(151 153 152 150)
		(161 159 153 151)
		(160 158 159 161)
		(152 280 286 158)
		(153 281 280 152)
		(159 287 281 153)
		(158 286 287 159)
		(282 283 285 284)
		(280 282 284 286)
		(281 283 282 280)
		(287 285 283 281)
		(286 284 285 287)
		(166 168 178 180)
		(167 169 168 166)
		(181 179 169 167)
		(180 178 179 181)
		(164 165 167 166)
		(180 181 183 182)
		(168 170 176 178)
		(169 171 170 168)
		(179 177 171 169)
		(178 176 177 179)
		(170 298 304 176)
		(171 299 298 170)
		(177 305 299 171)
		(176 304 305 177)
		(300 301 303 302)
		(298 300 302 304)
		(299 301 300 298)
		(305 303 301 299)
		(304 302 303 305)
		(184 186 196 198)
		(185 187 186 184)
		(199 197 187 185)
		(198 196 197 199)
		(182 183 185 184)
		(198 199 201 200)
		(186 188 194 196)
		(187 189 188 186)
		(197 195 189 187)
		(196 194 195 197)
		(188 316 322 194)
		(189 317 316 188)
		(195 323 317 189)
		(194 322 323 195)
		(318 319 321 320)
		(316 318 320 322)
		(317 319 318 316)
		(323 321 319 317)
		(322 320 321 323)
		(202 204 214 216)
		(203 205 204 202)
		(217 215 205 203)
		(216 214 215 217)
		(200 201 203 202)
		(216 217 219 218)
		(204 206 212 214)
		(205 207 206 204)
		(215 213 207 205)
		(214 212 213 215)
		(206 334 340 212)
		(207 335 334 206)
		(213 341 335 207)
		(212 340 341 213)
		(336 337 339 338)
		(334 336 338 340)
		(335 337 336 334)
		(341 339 337 335)
		(340 338 339 341)
		(220 222 232 234)
		(221 223 222 220)
		(235 233 223 221)
		(234 232 233 235)
		(218 219 221 220)
		(234 235 237 236)
		(222 224 230 232)
		(223 225 224 222)
		(233 231 225 223)
		(232 230 231 233)
		(224 352 358 230)
		(225 353 352 224)
		(231 359 353 225)
		(230 358 359 231)
		(354 355 357 356)
		(352 354 356 358)
		(353 355 354 352)
		(359 357 355 353)
		(358 356 357 359)
		(238 240 250 252)
		(239 241 240 238)
		(253 251 241 239)
		(252 250 251 253)
		(236 237 239 238)
		(252 253 255 254)
		(240 242 248 250)
		(241 243 242 240)
		(251 249 243 241)
		(250 248 249 251)
		(242 370 376 248)
		(243 371 370 242)
		(249 377 371 243)
		(248 376 377 249)
		(372 373 375 374)
		(370 372 374 376)
		(371 373 372 370)
		(377 375 373 371)
		(376 374 375 377)
		(0 1 129 128)
		(127 126 254 255)
	)

	patch plateFix
	(
		(10 11 9 8)
		(12 10 8 6)
		(6 8 9 7)
		(7 9 11 13)
		(13 11 10 12)
		(16 14 4 2)
		(2 4 5 3)
		(3 5 15 17)
		(17 15 14 16)
		(0 1 3 2)
		(16 17 19 18)
		(14 12 6 4)
		(4 6 7 5)
		(5 7 13 15)
		(15 13 12 14)
		(28 29 27 26)
		(30 28 26 24)
		(24 26 27 25)
		(25 27 29 31)
		(31 29 28 30)
		(34 32 22 20)
		(20 22 23 21)
		(21 23 33 35)
		(35 33 32 34)
		(18 19 21 20)
		(34 35 37 36)
		(32 30 24 22)
		(22 24 25 23)
		(23 25 31 33)
		(33 31 30 32)
		(46 47 45 44)
		(48 46 44 42)
		(42 44 45 43)
		(43 45 47 49)
		(49 47 46 48)
		(52 50 40 38)
		(38 40 41 39)
		(39 41 51 53)
		(53 51 50 52)
		(36 37 39 38)
		(52 53 55 54)
		(50 48 42 40)
		(40 42 43 41)
		(41 43 49 51)
		(51 49 48 50)
		(64 65 63 62)
		(66 64 62 60)
		(60 62 63 61)
		(61 63 65 67)
		(67 65 64 66)
		(70 68 58 56)
		(56 58 59 57)
		(57 59 69 71)
		(71 69 68 70)
		(54 55 57 56)
		(70 71 73 72)
		(68 66 60 58)
		(58 60 61 59)
		(59 61 67 69)
		(69 67 66 68)
		(82 83 81 80)
		(84 82 80 78)
		(78 80 81 79)
		(79 81 83 85)
		(85 83 82 84)
		(88 86 76 74)
		(74 76 77 75)
		(75 77 87 89)
		(89 87 86 88)
		(72 73 75 74)
		(88 89 91 90)
		(86 84 78 76)
		(76 78 79 77)
		(77 79 85 87)
		(87 85 84 86)