/*--------------------------------*- C++ -*----------------------------------*\
| =========                 |                                                 |
| \      /  F ield         | foam-extend: Open Source CFD                    |
|  \    /   O peration     | Version:     4.0                                |
|   \  /    A nd           | Web:         http://www.foam-extend.org         |
|    \/     M anipulation  |                                                 |
\*---------------------------------------------------------------------------*/
FoamFile
{
    version     2.0;
    format      ascii;
    class       dictionary;
    object      blockMeshDict;
}
// * * * * * * * * * * * * * * * * * * * * * * * * * * * * * * * * * * * * * //

convertToMeters 0.001;
vertices
(
	(840 490 0)      //0
	(1680 490 0)      //1
	(1210.5025 685.5025 0)      //2
	(1309.4975 685.5025 0)      //3
	(1235.2513 710.2513 0)      //4
	(1284.7487 710.2513 0)      //5
	(1235.2513 759.7487 0)      //6
	(1284.7487 759.7487 0)      //7
	(1210.5025 784.4975 0)      //8
	(1309.4975 784.4975 0)      //9
	(840 980 0)      //10
	(1680 980 0)      //11
	(1210.5025 1175.5025 0)      //12
	(1309.4975 1175.5025 0)      //13
	(1235.2513 1200.2513 0)      //14
	(1284.7487 1200.2513 0)      //15
	(1235.2513 1249.7487 0)      //16
	(1284.7487 1249.7487 0)      //17
	(1210.5025 1274.4975 0)      //18
	(1309.4975 1274.4975 0)      //19
	(840 1470 0)      //20
	(1680 1470 0)      //21
	(1210.5025 1665.5025 0)      //22
	(1309.4975 1665.5025 0)      //23
	(1235.2513 1690.2513 0)      //24
	(1284.7487 1690.2513 0)      //25
	(1235.2513 1739.7487 0)      //26
	(1284.7487 1739.7487 0)      //27
	(1210.5025 1764.4975 0)      //28
	(1309.4975 1764.4975 0)      //29
	(840 1960 0)      //30
	(1680 1960 0)      //31
	(1210.5025 2155.5025 0)      //32
	(1309.4975 2155.5025 0)      //33
	(1235.2513 2180.2513 0)      //34
	(1284.7487 2180.2513 0)      //35
	(1235.2513 2229.7487 0)      //36
	(1284.7487 2229.7487 0)      //37
	(1210.5025 2254.4975 0)      //38
	(1309.4975 2254.4975 0)      //39
	(840 2450 0)      //40
	(1680 2450 0)      //41
	(1210.5025 2645.5025 0)      //42
	(1309.4975 2645.5025 0)      //43
	(1235.2513 2670.2513 0)      //44
	(1284.7487 2670.2513 0)      //45
	(1235.2513 2719.7487 0)      //46
	(1284.7487 2719.7487 0)      //47
	(1210.5025 2744.4975 0)      //48
	(1309.4975 2744.4975 0)      //49
	(840 2940 0)      //50
	(1680 2940 0)      //51
	(840 490 150)      //52
	(1680 490 150)      //53
	(1210.5025 685.5025 150)      //54
	(1309.4975 685.5025 150)      //55
	(1235.2513 710.2513 150)      //56
	(1284.7487 710.2513 150)      //57
	(1235.2513 759.7487 150)      //58
	(1284.7487 759.7487 150)      //59
	(1210.5025 784.4975 150)      //60
	(1309.4975 784.4975 150)      //61
	(840 980 150)      //62
	(1680 980 150)      //63
	(1210.5025 1175.5025 150)      //64
	(1309.4975 1175.5025 150)      //65
	(1235.2513 1200.2513 150)      //66
	(1284.7487 1200.2513 150)      //67
	(1235.2513 1249.7487 150)      //68
	(1284.7487 1249.7487 150)      //69
	(1210.5025 1274.4975 150)      //70
	(1309.4975 1274.4975 150)      //71
	(840 1470 150)      //72
	(1680 1470 150)      //73
	(1210.5025 1665.5025 150)      //74
	(1309.4975 1665.5025 150)      //75
	(1235.2513 1690.2513 150)      //76
	(1284.7487 1690.2513 150)      //77
	(1235.2513 1739.7487 150)      //78
	(1284.7487 1739.7487 150)      //79
	(1210.5025 1764.4975 150)      //80
	(1309.4975 1764.4975 150)      //81
	(840 1960 150)      //82
	(1680 1960 150)      //83
	(1210.5025 2155.5025 150)      //84
	(1309.4975 2155.5025 150)      //85
	(1235.2513 2180.2513 150)      //86
	(1284.7487 2180.2513 150)      //87
	(1235.2513 2229.7487 150)      //88
	(1284.7487 2229.7487 150)      //89
	(1210.5025 2254.4975 150)      //90
	(1309.4975 2254.4975 150)      //91
	(840 2450 150)      //92
	(1680 2450 150)      //93
	(1210.5025 2645.5025 150)      //94
	(1309.4975 2645.5025 150)      //95
	(1235.2513 2670.2513 150)      //96
	(1284.7487 2670.2513 150)      //97
	(1235.2513 2719.7487 150)      //98
	(1284.7487 2719.7487 150)      //99
	(1210.5025 2744.4975 150)      //100
	(1309.4975 2744.4975 150)      //101
	(840 2940 150)      //102
	(1680 2940 150)      //103
	(1210.5025 685.5025 1650)      //104
	(1309.4975 685.5025 1650)      //105
	(1235.2513 710.2513 1650)      //106
	(1284.7487 710.2513 1650)      //107
	(1235.2513 759.7487 1650)      //108
	(1284.7487 759.7487 1650)      //109
	(1210.5025 784.4975 1650)      //110
	(1309.4975 784.4975 1650)      //111
	(1210.5025 1175.5025 1650)      //112
	(1309.4975 1175.5025 1650)      //113
	(1235.2513 1200.2513 1650)      //114
	(1284.7487 1200.2513 1650)      //115
	(1235.2513 1249.7487 1650)      //116
	(1284.7487 1249.7487 1650)      //117
	(1210.5025 1274.4975 1650)      //118
	(1309.4975 1274.4975 1650)      //119
	(1210.5025 1665.5025 1650)      //120
	(1309.4975 1665.5025 1650)      //121
	(1235.2513 1690.2513 1650)      //122
	(1284.7487 1690.2513 1650)      //123
	(1235.2513 1739.7487 1650)      //124
	(1284.7487 1739.7487 1650)      //125
	(1210.5025 1764.4975 1650)      //126
	(1309.4975 1764.4975 1650)      //127
	(1210.5025 2155.5025 1650)      //128
	(1309.4975 2155.5025 1650)      //129
	(1235.2513 2180.2513 1650)      //130
	(1284.7487 2180.2513 1650)      //131
	(1235.2513 2229.7487 1650)      //132
	(1284.7487 2229.7487 1650)      //133
	(1210.5025 2254.4975 1650)      //134
	(1309.4975 2254.4975 1650)      //135
	(1210.5025 2645.5025 1650)      //136
	(1309.4975 2645.5025 1650)      //137
	(1235.2513 2670.2513 1650)      //138
	(1284.7487 2670.2513 1650)      //139
	(1235.2513 2719.7487 1650)      //140
	(1284.7487 2719.7487 1650)      //141
	(1210.5025 2744.4975 1650)      //142
	(1309.4975 2744.4975 1650)      //143

);

blocks
(
	hex (4 5 7 6 56 57 59 58) (5 5 1) simpleGrading (1 1 1)
	hex (2 4 6 8 54 56 58 60) (5 5 1) simpleGrading (1 1 1)
	hex (3 5 4 2 55 57 56 54) (5 5 1) simpleGrading (1 1 1)
	hex (9 7 5 3 61 59 57 55) (5 5 1) simpleGrading (1 1 1)
	hex (8 6 7 9 60 58 59 61) (5 5 1) simpleGrading (1 1 1)
	hex (0 2 8 10 52 54 60 62) (5 5 1) simpleGrading (1 1 1)
	hex (1 3 2 0 53 55 54 52) (5 5 1) simpleGrading (1 1 1)
	hex (11 9 3 1 63 61 55 53) (5 5 1) simpleGrading (1 1 1)
	hex (10 8 9 11 62 60 61 63) (5 5 1) simpleGrading (1 1 1)
	hex (56 57 59 58 106 107 109 108) (5 5 10) simpleGrading (1 1 1)
	hex (54 56 58 60 104 106 108 110) (5 5 10) simpleGrading (1 1 1)
	hex (55 57 56 54 105 107 106 104) (5 5 10) simpleGrading (1 1 1)
	hex (61 59 57 55 111 109 107 105) (5 5 10) simpleGrading (1 1 1)
	hex (60 58 59 61 110 108 109 111) (5 5 10) simpleGrading (1 1 1)
	hex (14 15 17 16 66 67 69 68) (5 5 1) simpleGrading (1 1 1)
	hex (12 14 16 18 64 66 68 70) (5 5 1) simpleGrading (1 1 1)
	hex (13 15 14 12 65 67 66 64) (5 5 1) simpleGrading (1 1 1)
	hex (19 17 15 13 71 69 67 65) (5 5 1) simpleGrading (1 1 1)
	hex (18 16 17 19 70 68 69 71) (5 5 1) simpleGrading (1 1 1)
	hex (10 12 18 20 62 64 70 72) (5 5 1) simpleGrading (1 1 1)
	hex (11 13 12 10 63 65 64 62) (5 5 1) simpleGrading (1 1 1)
	hex (21 19 13 11 73 71 65 63) (5 5 1) simpleGrading (1 1 1)
	hex (20 18 19 21 72 70 71 73) (5 5 1) simpleGrading (1 1 1)
	hex (66 67 69 68 114 115 117 116) (5 5 10) simpleGrading (1 1 1)
	hex (64 66 68 70 112 114 116 118) (5 5 10) simpleGrading (1 1 1)
	hex (65 67 66 64 113 115 114 112) (5 5 10) simpleGrading (1 1 1)
	hex (71 69 67 65 119 117 115 113) (5 5 10) simpleGrading (1 1 1)
	hex (70 68 69 71 118 116 117 119) (5 5 10) simpleGrading (1 1 1)
	hex (24 25 27 26 76 77 79 78) (5 5 1) simpleGrading (1 1 1)
	hex (22 24 26 28 74 76 78 80) (5 5 1) simpleGrading (1 1 1)
	hex (23 25 24 22 75 77 76 74) (5 5 1) simpleGrading (1 1 1)
	hex (29 27 25 23 81 79 77 75) (5 5 1) simpleGrading (1 1 1)
	hex (28 26 27 29 80 78 79 81) (5 5 1) simpleGrading (1 1 1)
	hex (20 22 28 30 72 74 80 82) (5 5 1) simpleGrading (1 1 1)
	hex (21 23 22 20 73 75 74 72) (5 5 1) simpleGrading (1 1 1)
	hex (31 29 23 21 83 81 75 73) (5 5 1) simpleGrading (1 1 1)
	hex (30 28 29 31 82 80 81 83) (5 5 1) simpleGrading (1 1 1)
	hex (76 77 79 78 122 123 125 124) (5 5 10) simpleGrading (1 1 1)
	hex (74 76 78 80 120 122 124 126) (5 5 10) simpleGrading (1 1 1)
	hex (75 77 76 74 121 123 122 120) (5 5 10) simpleGrading (1 1 1)
	hex (81 79 77 75 127 125 123 121) (5 5 10) simpleGrading (1 1 1)
	hex (80 78 79 81 126 124 125 127) (5 5 10) simpleGrading (1 1 1)
	hex (34 35 37 36 86 87 89 88) (5 5 1) simpleGrading (1 1 1)
	hex (32 34 36 38 84 86 88 90) (5 5 1) simpleGrading (1 1 1)
	hex (33 35 34 32 85 87 86 84) (5 5 1) simpleGrading (1 1 1)
	hex (39 37 35 33 91 89 87 85) (5 5 1) simpleGrading (1 1 1)
	hex (38 36 37 39 90 88 89 91) (5 5 1) simpleGrading (1 1 1)
	hex (30 32 38 40 82 84 90 92) (5 5 1) simpleGrading (1 1 1)
	hex (31 33 32 30 83 85 84 82) (5 5 1) simpleGrading (1 1 1)
	hex (41 39 33 31 93 91 85 83) (5 5 1) simpleGrading (1 1 1)
	hex (40 38 39 41 92 90 91 93) (5 5 1) simpleGrading (1 1 1)
	hex (86 87 89 88 130 131 133 132) (5 5 10) simpleGrading (1 1 1)
	hex (84 86 88 90 128 130 132 134) (5 5 10) simpleGrading (1 1 1)
	hex (85 87 86 84 129 131 130 128) (5 5 10) simpleGrading (1 1 1)
	hex (91 89 87 85 135 133 131 129) (5 5 10) simpleGrading (1 1 1)
	hex (90 88 89 91 134 132 133 135) (5 5 10) simpleGrading (1 1 1)
	hex (44 45 47 46 96 97 99 98) (5 5 1) simpleGrading (1 1 1)
	hex (42 44 46 48 94 96 98 100) (5 5 1) simpleGrading (1 1 1)
	hex (43 45 44 42 95 97 96 94) (5 5 1) simpleGrading (1 1 1)
	hex (49 47 45 43 101 99 97 95) (5 5 1) simpleGrading (1 1 1)
	hex (48 46 47 49 100 98 99 101) (5 5 1) simpleGrading (1 1 1)
	hex (40 42 48 50 92 94 100 102) (5 5 1) simpleGrading (1 1 1)
	hex (41 43 42 40 93 95 94 92) (5 5 1) simpleGrading (1 1 1)
	hex (51 49 43 41 103 101 95 93) (5 5 1) simpleGrading (1 1 1)
	hex (50 48 49 51 102 100 101 103) (5 5 1) simpleGrading (1 1 1)
	hex (96 97 99 98 138 139 141 140) (5 5 10) simpleGrading (1 1 1)
	hex (94 96 98 100 136 138 140 142) (5 5 10) simpleGrading (1 1 1)
	hex (95 97 96 94 137 139 138 136) (5 5 10) simpleGrading (1 1 1)
	hex (101 99 97 95 143 141 139 137) (5 5 10) simpleGrading (1 1 1)
	hex (100 98 99 101 142 140 141 143) (5 5 10) simpleGrading (1 1 1)

);

edges
(
	arc 2 3 (1260.0 665.0 0)
	arc 3 9 (1330.0 735.0 0)
	arc 9 8 (1260.0 805.0 0)
	arc 8 2 (1190.0 735.0 0)
	arc 54 55 (1260.0 665.0 150)
	arc 55 61 (1330.0 735.0 150)
	arc 61 60 (1260.0 805.0 150)
	arc 60 54 (1190.0 735.0 150)
	arc 12 13 (1260.0 1155.0 0)
	arc 13 19 (1330.0 1225.0 0)
	arc 19 18 (1260.0 1295.0 0)
	arc 18 12 (1190.0 1225.0 0)
	arc 64 65 (1260.0 1155.0 150)
	arc 65 71 (1330.0 1225.0 150)
	arc 71 70 (1260.0 1295.0 150)
	arc 70 64 (1190.0 1225.0 150)
	arc 22 23 (1260.0 1645.0 0)
	arc 23 29 (1330.0 1715.0 0)
	arc 29 28 (1260.0 1785.0 0)
	arc 28 22 (1190.0 1715.0 0)
	arc 74 75 (1260.0 1645.0 150)
	arc 75 81 (1330.0 1715.0 150)
	arc 81 80 (1260.0 1785.0 150)
	arc 80 74 (1190.0 1715.0 150)
	arc 32 33 (1260.0 2135.0 0)
	arc 33 39 (1330.0 2205.0 0)
	arc 39 38 (1260.0 2275.0 0)
	arc 38 32 (1190.0 2205.0 0)
	arc 84 85 (1260.0 2135.0 150)
	arc 85 91 (1330.0 2205.0 150)
	arc 91 90 (1260.0 2275.0 150)
	arc 90 84 (1190.0 2205.0 150)
	arc 42 43 (1260.0 2625.0 0)
	arc 43 49 (1330.0 2695.0 0)
	arc 49 48 (1260.0 2765.0 0)
	arc 48 42 (1190.0 2695.0 0)
	arc 94 95 (1260.0 2625.0 150)
	arc 95 101 (1330.0 2695.0 150)
	arc 101 100 (1260.0 2765.0 150)
	arc 100 94 (1190.0 2695.0 150)
	arc 104 105 (1260.0 665.0 1650)
	arc 105 111 (1330.0 735.0 1650)
	arc 111 110 (1260.0 805.0 1650)
	arc 110 104 (1190.0 735.0 1650)
	arc 112 113 (1260.0 1155.0 1650)
	arc 113 119 (1330.0 1225.0 1650)
	arc 119 118 (1260.0 1295.0 1650)
	arc 118 112 (1190.0 1225.0 1650)
	arc 120 121 (1260.0 1645.0 1650)
	arc 121 127 (1330.0 1715.0 1650)
	arc 127 126 (1260.0 1785.0 1650)
	arc 126 120 (1190.0 1715.0 1650)
	arc 128 129 (1260.0 2135.0 1650)
	arc 129 135 (1330.0 2205.0 1650)
	arc 135 134 (1260.0 2275.0 1650)
	arc 134 128 (1190.0 2205.0 1650)
	arc 136 137 (1260.0 2625.0 1650)
	arc 137 143 (1330.0 2695.0 1650)
	arc 143 142 (1260.0 2765.0 1650)
	arc 142 136 (1190.0 2695.0 1650)
);

patches
(
	patch bristle
	(
		(0 52 62 10)
		(11 63 53 1)
		(52 54 60 62)
		(53 55 54 52)
		(63 61 55 53)
		(62 60 61 63)
		(54 104 110 60)
		(55 105 104 54)
		(61 111 105 55)
		(60 110 111 61)
		(106 107 109 108)
		(104 106 108 110)
		(105 107 106 104)
		(111 109 107 105)
		(110 108 109 111)
		(10 62 72 20)
		(21 73 63 11)
		(62 64 70 72)
		(63 65 64 62)
		(73 71 65 63)
		(72 70 71 73)
		(64 112 118 70)
		(65 113 112 64)
		(71 119 113 65)
		(70 118 119 71)
		(114 115 117 116)
		(112 114 116 118)
		(113 115 114 112)
		(119 117 115 113)
		(118 116 117 119)
		(20 72 82 30)
		(31 83 73 21)
		(72 74 80 82)
		(73 75 74 72)
		(83 81 75 73)
		(82 80 81 83)
		(74 120 126 80)
		(75 121 120 74)
		(81 127 121 75)
		(80 126 127 81)
		(122 123 125 124)
		(120 122 124 126)
		(121 123 122 120)
		(127 125 123 121)
		(126 124 125 127)
		(30 82 92 40)
		(41 93 83 31)
		(82 84 90 92)
		(83 85 84 82)
		(93 91 85 83)
		(92 90 91 93)
		(84 128 134 90)
		(85 129 128 84)
		(91 135 129 85)
		(90 134 135 91)
		(130 131 133 132)
		(128 130 132 134)
		(129 131 130 128)
		(135 133 131 129)
		(134 132 133 135)
		(40 92 102 50)
		(51 103 93 41)
		(92 94 100 102)
		(93 95 94 92)
		(103 101 95 93)
		(102 100 101 103)
		(94 136 142 100)
		(95 137 136 94)
		(101 143 137 95)
		(100 142 143 101)
		(138 139 141 140)
		(136 138 140 142)
		(137 139 138 136)
		(143 141 139 137)
		(142 140 141 143)
		(0 1 53 52)
		(51 50 102 103)
	)

	patch plateFix
	(
		(10 8 2 0)
		(0 2 3 1)
		(1 3 9 11)
		(11 9 8 10)
		(6 7 5 4)
		(8 6 4 2)
		(2 4 5 3)
		(3 5 7 9)
		(9 7 6 8)
		(20 18 12 10)
		(10 12 13 11)
		(11 13 19 21)
		(21 19 18 20)
		(16 17 15 14)
		(18 16 14 12)
		(12 14 15 13)
		(13 15 17 19)
		(19 17 16 18)
		(30 28 22 20)
		(20 22 23 21)
		(21 23 29 31)
		(31 29 28 30)
		(26 27 25 24)
		(28 26 24 22)
		(22 24 25 23)
		(23 25 27 29)
		(29 27 26 28)
		(40 38 32 30)
		(30 32 33 31)
		(31 33 39 41)
		(41 39 38 40)
		(36 37 35 34)
		(38 36 34 32)
		(32 34 35 33)
		(33 35 37 39)
		(39 37 36 38)
		(50 48 42 40)
		(40 42 43 41)
		(41 43 49 51)
		(51 49 48 50)
		(46 47 45 44)
		(48 46 44 42)
		(42 44 45 43)
		(43 45 47 49)
		(49 47 46 48)
	)

);

mergePatchPairs
(
);


// ************************************************************************* //

