/*--------------------------------*- C++ -*----------------------------------*\
| =========                 |                                                 |
| \      /  F ield         | foam-extend: Open Source CFD                    |
|  \    /   O peration     | Version:     4.0                                |
|   \  /    A nd           | Web:         http://www.foam-extend.org         |
|    \/     M anipulation  |                                                 |
\*---------------------------------------------------------------------------*/
FoamFile
{
    version     2.0;
    format      ascii;
    class       dictionary;
    object      blockMeshDict;
}
// * * * * * * * * * * * * * * * * * * * * * * * * * * * * * * * * * * * * * //

convertToMeters 0.001;
vertices
(
	(18 30 0)      //0
	(24 30 0)      //1
	(20.6464 32.6464 0)      //2
	(21.3536 32.6464 0)      //3
	(20.8232 32.8232 0)      //4
	(21.1768 32.8232 0)      //5
	(20.8232 33.1768 0)      //6
	(21.1768 33.1768 0)      //7
	(20.6464 33.3536 0)      //8
	(21.3536 33.3536 0)      //9
	(18 36 0)      //10
	(24 36 0)      //11
	(20.6464 38.6464 0)      //12
	(21.3536 38.6464 0)      //13
	(20.8232 38.8232 0)      //14
	(21.1768 38.8232 0)      //15
	(20.8232 39.1768 0)      //16
	(21.1768 39.1768 0)      //17
	(20.6464 39.3536 0)      //18
	(21.3536 39.3536 0)      //19
	(18 42 0)      //20
	(24 42 0)      //21
	(20.6464 44.6464 0)      //22
	(21.3536 44.6464 0)      //23
	(20.8232 44.8232 0)      //24
	(21.1768 44.8232 0)      //25
	(20.8232 45.1768 0)      //26
	(21.1768 45.1768 0)      //27
	(20.6464 45.3536 0)      //28
	(21.3536 45.3536 0)      //29
	(18 48 0)      //30
	(24 48 0)      //31
	(20.6464 50.6464 0)      //32
	(21.3536 50.6464 0)      //33
	(20.8232 50.8232 0)      //34
	(21.1768 50.8232 0)      //35
	(20.8232 51.1768 0)      //36
	(21.1768 51.1768 0)      //37
	(20.6464 51.3536 0)      //38
	(21.3536 51.3536 0)      //39
	(18 54 0)      //40
	(24 54 0)      //41
	(20.6464 56.6464 0)      //42
	(21.3536 56.6464 0)      //43
	(20.8232 56.8232 0)      //44
	(21.1768 56.8232 0)      //45
	(20.8232 57.1768 0)      //46
	(21.1768 57.1768 0)      //47
	(20.6464 57.3536 0)      //48
	(21.3536 57.3536 0)      //49
	(18 60 0)      //50
	(24 60 0)      //51
	(18 30 1)      //52
	(24 30 1)      //53
	(20.6464 32.6464 1)      //54
	(21.3536 32.6464 1)      //55
	(20.8232 32.8232 1)      //56
	(21.1768 32.8232 1)      //57
	(20.8232 33.1768 1)      //58
	(21.1768 33.1768 1)      //59
	(20.6464 33.3536 1)      //60
	(21.3536 33.3536 1)      //61
	(18 36 1)      //62
	(24 36 1)      //63
	(20.6464 38.6464 1)      //64
	(21.3536 38.6464 1)      //65
	(20.8232 38.8232 1)      //66
	(21.1768 38.8232 1)      //67
	(20.8232 39.1768 1)      //68
	(21.1768 39.1768 1)      //69
	(20.6464 39.3536 1)      //70
	(21.3536 39.3536 1)      //71
	(18 42 1)      //72
	(24 42 1)      //73
	(20.6464 44.6464 1)      //74
	(21.3536 44.6464 1)      //75
	(20.8232 44.8232 1)      //76
	(21.1768 44.8232 1)      //77
	(20.8232 45.1768 1)      //78
	(21.1768 45.1768 1)      //79
	(20.6464 45.3536 1)      //80
	(21.3536 45.3536 1)      //81
	(18 48 1)      //82
	(24 48 1)      //83
	(20.6464 50.6464 1)      //84
	(21.3536 50.6464 1)      //85
	(20.8232 50.8232 1)      //86
	(21.1768 50.8232 1)      //87
	(20.8232 51.1768 1)      //88
	(21.1768 51.1768 1)      //89
	(20.6464 51.3536 1)      //90
	(21.3536 51.3536 1)      //91
	(18 54 1)      //92
	(24 54 1)      //93
	(20.6464 56.6464 1)      //94
	(21.3536 56.6464 1)      //95
	(20.8232 56.8232 1)      //96
	(21.1768 56.8232 1)      //97
	(20.8232 57.1768 1)      //98
	(21.1768 57.1768 1)      //99
	(20.6464 57.3536 1)      //100
	(21.3536 57.3536 1)      //101
	(18 60 1)      //102
	(24 60 1)      //103
	(18 30 101)      //104
	(24 30 101)      //105
	(20.6464 32.6464 101)      //106
	(21.3536 32.6464 101)      //107
	(20.8232 32.8232 101)      //108
	(21.1768 32.8232 101)      //109
	(20.8232 33.1768 101)      //110
	(21.1768 33.1768 101)      //111
	(20.6464 33.3536 101)      //112
	(21.3536 33.3536 101)      //113
	(18 36 101)      //114
	(24 36 101)      //115
	(20.6464 38.6464 101)      //116
	(21.3536 38.6464 101)      //117
	(20.8232 38.8232 101)      //118
	(21.1768 38.8232 101)      //119
	(20.8232 39.1768 101)      //120
	(21.1768 39.1768 101)      //121
	(20.6464 39.3536 101)      //122
	(21.3536 39.3536 101)      //123
	(18 42 101)      //124
	(24 42 101)      //125
	(20.6464 44.6464 101)      //126
	(21.3536 44.6464 101)      //127
	(20.8232 44.8232 101)      //128
	(21.1768 44.8232 101)      //129
	(20.8232 45.1768 101)      //130
	(21.1768 45.1768 101)      //131
	(20.6464 45.3536 101)      //132
	(21.3536 45.3536 101)      //133
	(18 48 101)      //134
	(24 48 101)      //135
	(20.6464 50.6464 101)      //136
	(21.3536 50.6464 101)      //137
	(20.8232 50.8232 101)      //138
	(21.1768 50.8232 101)      //139
	(20.8232 51.1768 101)      //140
	(21.1768 51.1768 101)      //141
	(20.6464 51.3536 101)      //142
	(21.3536 51.3536 101)      //143
	(18 54 101)      //144
	(24 54 101)      //145
	(20.6464 56.6464 101)      //146
	(21.3536 56.6464 101)      //147
	(20.8232 56.8232 101)      //148
	(21.1768 56.8232 101)      //149
	(20.8232 57.1768 101)      //150
	(21.1768 57.1768 101)      //151
	(20.6464 57.3536 101)      //152
	(21.3536 57.3536 101)      //153
	(18 60 101)      //154
	(24 60 101)      //155

);

blocks
(
	hex (4 5 7 6 56 57 59 58) (10 10 1) simpleGrading (1 1 1)
	hex (2 4 6 8 54 56 58 60) (10 10 1) simpleGrading (1 1 1)
	hex (3 5 4 2 55 57 56 54) (10 10 1) simpleGrading (1 1 1)
	hex (9 7 5 3 61 59 57 55) (10 10 1) simpleGrading (1 1 1)
	hex (8 6 7 9 60 58 59 61) (10 10 1) simpleGrading (1 1 1)
	hex (0 2 8 10 52 54 60 62) (10 10 1) simpleGrading (1 1 1)
	hex (1 3 2 0 53 55 54 52) (10 10 1) simpleGrading (1 1 1)
	hex (11 9 3 1 63 61 55 53) (10 10 1) simpleGrading (1 1 1)
	hex (10 8 9 11 62 60 61 63) (10 10 1) simpleGrading (1 1 1)
	hex (56 57 59 58 108 109 111 110) (10 10 80) simpleGrading (1 1 1)
	hex (54 56 58 60 106 108 110 112) (10 10 80) simpleGrading (1 1 1)
	hex (55 57 56 54 107 109 108 106) (10 10 80) simpleGrading (1 1 1)
	hex (61 59 57 55 113 111 109 107) (10 10 80) simpleGrading (1 1 1)
	hex (60 58 59 61 112 110 111 113) (10 10 80) simpleGrading (1 1 1)
	hex (14 15 17 16 66 67 69 68) (10 10 1) simpleGrading (1 1 1)
	hex (12 14 16 18 64 66 68 70) (10 10 1) simpleGrading (1 1 1)
	hex (13 15 14 12 65 67 66 64) (10 10 1) simpleGrading (1 1 1)
	hex (19 17 15 13 71 69 67 65) (10 10 1) simpleGrading (1 1 1)
	hex (18 16 17 19 70 68 69 71) (10 10 1) simpleGrading (1 1 1)
	hex (10 12 18 20 62 64 70 72) (10 10 1) simpleGrading (1 1 1)
	hex (11 13 12 10 63 65 64 62) (10 10 1) simpleGrading (1 1 1)
	hex (21 19 13 11 73 71 65 63) (10 10 1) simpleGrading (1 1 1)
	hex (20 18 19 21 72 70 71 73) (10 10 1) simpleGrading (1 1 1)
	hex (66 67 69 68 118 119 121 120) (10 10 80) simpleGrading (1 1 1)
	hex (64 66 68 70 116 118 120 122) (10 10 80) simpleGrading (1 1 1)
	hex (65 67 66 64 117 119 118 116) (10 10 80) simpleGrading (1 1 1)
	hex (71 69 67 65 123 121 119 117) (10 10 80) simpleGrading (1 1 1)
	hex (70 68 69 71 122 120 121 123) (10 10 80) simpleGrading (1 1 1)
	hex (24 25 27 26 76 77 79 78) (10 10 1) simpleGrading (1 1 1)
	hex (22 24 26 28 74 76 78 80) (10 10 1) simpleGrading (1 1 1)
	hex (23 25 24 22 75 77 76 74) (10 10 1) simpleGrading (1 1 1)
	hex (29 27 25 23 81 79 77 75) (10 10 1) simpleGrading (1 1 1)
	hex (28 26 27 29 80 78 79 81) (10 10 1) simpleGrading (1 1 1)
	hex (20 22 28 30 72 74 80 82) (10 10 1) simpleGrading (1 1 1)
	hex (21 23 22 20 73 75 74 72) (10 10 1) simpleGrading (1 1 1)
	hex (31 29 23 21 83 81 75 73) (10 10 1) simpleGrading (1 1 1)
	hex (30 28 29 31 82 80 81 83) (10 10 1) simpleGrading (1 1 1)
	hex (76 77 79 78 128 129 131 130) (10 10 80) simpleGrading (1 1 1)
	hex (74 76 78 80 126 128 130 132) (10 10 80) simpleGrading (1 1 1)
	hex (75 77 76 74 127 129 128 126) (10 10 80) simpleGrading (1 1 1)
	hex (81 79 77 75 133 131 129 127) (10 10 80) simpleGrading (1 1 1)
	hex (80 78 79 81 132 130 131 133) (10 10 80) simpleGrading (1 1 1)
	hex (34 35 37 36 86 87 89 88) (10 10 1) simpleGrading (1 1 1)
	hex (32 34 36 38 84 86 88 90) (10 10 1) simpleGrading (1 1 1)
	hex (33 35 34 32 85 87 86 84) (10 10 1) simpleGrading (1 1 1)
	hex (39 37 35 33 91 89 87 85) (10 10 1) simpleGrading (1 1 1)
	hex (38 36 37 39 90 88 89 91) (10 10 1) simpleGrading (1 1 1)
	hex (30 32 38 40 82 84 90 92) (10 10 1) simpleGrading (1 1 1)
	hex (31 33 32 30 83 85 84 82) (10 10 1) simpleGrading (1 1 1)
	hex (41 39 33 31 93 91 85 83) (10 10 1) simpleGrading (1 1 1)
	hex (40 38 39 41 92 90 91 93) (10 10 1) simpleGrading (1 1 1)
	hex (86 87 89 88 138 139 141 140) (10 10 80) simpleGrading (1 1 1)
	hex (84 86 88 90 136 138 140 142) (10 10 80) simpleGrading (1 1 1)
	hex (85 87 86 84 137 139 138 136) (10 10 80) simpleGrading (1 1 1)
	hex (91 89 87 85 143 141 139 137) (10 10 80) simpleGrading (1 1 1)
	hex (90 88 89 91 142 140 141 143) (10 10 80) simpleGrading (1 1 1)
	hex (44 45 47 46 96 97 99 98) (10 10 1) simpleGrading (1 1 1)
	hex (42 44 46 48 94 96 98 100) (10 10 1) simpleGrading (1 1 1)
	hex (43 45 44 42 95 97 96 94) (10 10 1) simpleGrading (1 1 1)
	hex (49 47 45 43 101 99 97 95) (10 10 1) simpleGrading (1 1 1)
	hex (48 46 47 49 100 98 99 101) (10 10 1) simpleGrading (1 1 1)
	hex (40 42 48 50 92 94 100 102) (10 10 1) simpleGrading (1 1 1)
	hex (41 43 42 40 93 95 94 92) (10 10 1) simpleGrading (1 1 1)
	hex (51 49 43 41 103 101 95 93) (10 10 1) simpleGrading (1 1 1)
	hex (50 48 49 51 102 100 101 103) (10 10 1) simpleGrading (1 1 1)
	hex (96 97 99 98 148 149 151 150) (10 10 80) simpleGrading (1 1 1)
	hex (94 96 98 100 146 148 150 152) (10 10 80) simpleGrading (1 1 1)
	hex (95 97 96 94 147 149 148 146) (10 10 80) simpleGrading (1 1 1)
	hex (101 99 97 95 153 151 149 147) (10 10 80) simpleGrading (1 1 1)
	hex (100 98 99 101 152 150 151 153) (10 10 80) simpleGrading (1 1 1)

);

edges
(
	arc 2 3 (21.0 18.785714285714285 0)
	arc 3 9 (21.5 19.285714285714285 0)
	arc 9 8 (21.0 19.785714285714285 0)
	arc 8 2 (20.5 19.285714285714285 0)
	arc 54 55 (21.0 18.785714285714285 1)
	arc 55 61 (21.5 19.285714285714285 1)
	arc 61 60 (21.0 19.785714285714285 1)
	arc 60 54 (20.5 19.285714285714285 1)
	arc 12 13 (21.0 31.642857142857142 0)
	arc 13 19 (21.5 32.14285714285714 0)
	arc 19 18 (21.0 32.64285714285714 0)
	arc 18 12 (20.5 32.14285714285714 0)
	arc 64 65 (21.0 31.642857142857142 1)
	arc 65 71 (21.5 32.14285714285714 1)
	arc 71 70 (21.0 32.64285714285714 1)
	arc 70 64 (20.5 32.14285714285714 1)
	arc 22 23 (21.0 44.5 0)
	arc 23 29 (21.5 45.0 0)
	arc 29 28 (21.0 45.5 0)
	arc 28 22 (20.5 45.0 0)
	arc 74 75 (21.0 44.5 1)
	arc 75 81 (21.5 45.0 1)
	arc 81 80 (21.0 45.5 1)
	arc 80 74 (20.5 45.0 1)
	arc 32 33 (21.0 57.357142857142854 0)
	arc 33 39 (21.5 57.857142857142854 0)
	arc 39 38 (21.0 58.357142857142854 0)
	arc 38 32 (20.5 57.857142857142854 0)
	arc 84 85 (21.0 57.357142857142854 1)
	arc 85 91 (21.5 57.857142857142854 1)
	arc 91 90 (21.0 58.357142857142854 1)
	arc 90 84 (20.5 57.857142857142854 1)
	arc 42 43 (21.0 70.21428571428572 0)
	arc 43 49 (21.5 70.71428571428572 0)
	arc 49 48 (21.0 71.21428571428572 0)
	arc 48 42 (20.5 70.71428571428572 0)
	arc 94 95 (21.0 70.21428571428572 1)
	arc 95 101 (21.5 70.71428571428572 1)
	arc 101 100 (21.0 71.21428571428572 1)
	arc 100 94 (20.5 70.71428571428572 1)
	arc 106 107 (21.0 18.785714285714285 101)
	arc 107 113 (21.5 19.285714285714285 101)
	arc 113 112 (21.0 19.785714285714285 101)
	arc 112 106 (20.5 19.285714285714285 101)
	arc 116 117 (21.0 31.642857142857142 101)
	arc 117 123 (21.5 32.14285714285714 101)
	arc 123 122 (21.0 32.64285714285714 101)
	arc 122 116 (20.5 32.14285714285714 101)
	arc 126 127 (21.0 44.5 101)
	arc 127 133 (21.5 45.0 101)
	arc 133 132 (21.0 45.5 101)
	arc 132 126 (20.5 45.0 101)
	arc 136 137 (21.0 57.357142857142854 101)
	arc 137 143 (21.5 57.857142857142854 101)
	arc 143 142 (21.0 58.357142857142854 101)
	arc 142 136 (20.5 57.857142857142854 101)
	arc 146 147 (21.0 70.21428571428572 101)
	arc 147 153 (21.5 70.71428571428572 101)
	arc 153 152 (21.0 71.21428571428572 101)
	arc 152 146 (20.5 70.71428571428572 101)
);

patches
(
	patch bristle
	(
		(0 52 62 10)
		(11 63 53 1)
		(52 54 60 62)
		(53 55 54 52)
		(63 61 55 53)
		(62 60 61 63)
		(54 106 112 60)
		(55 107 106 54)
		(61 113 107 55)
		(60 112 113 61)
		(108 109 111 110)
		(106 108 110 112)
		(107 109 108 106)
		(113 111 109 107)
		(112 110 111 113)
		(10 62 72 20)
		(21 73 63 11)
		(62 64 70 72)
		(63 65 64 62)
		(73 71 65 63)
		(72 70 71 73)
		(64 116 122 70)
		(65 117 116 64)
		(71 123 117 65)
		(70 122 123 71)
		(118 119 121 120)
		(116 118 120 122)
		(117 119 118 116)
		(123 121 119 117)
		(122 120 121 123)
		(20 72 82 30)
		(31 83 73 21)
		(72 74 80 82)
		(73 75 74 72)
		(83 81 75 73)
		(82 80 81 83)
		(74 126 132 80)
		(75 127 126 74)
		(81 133 127 75)
		(80 132 133 81)
		(128 129 131 130)
		(126 128 130 132)
		(127 129 128 126)
		(133 131 129 127)
		(132 130 131 133)
		(30 82 92 40)
		(41 93 83 31)
		(82 84 90 92)
		(83 85 84 82)
		(93 91 85 83)
		(92 90 91 93)
		(84 136 142 90)
		(85 137 136 84)
		(91 143 137 85)
		(90 142 143 91)
		(138 139 141 140)
		(136 138 140 142)
		(137 139 138 136)
		(143 141 139 137)
		(142 140 141 143)
		(40 92 102 50)
		(51 103 93 41)
		(92 94 100 102)
		(93 95 94 92)
		(103 101 95 93)
		(102 100 101 103)
		(94 146 152 100)
		(95 147 146 94)
		(101 153 147 95)
		(100 152 153 101)
		(148 149 151 150)
		(146 148 150 152)
		(147 149 148 146)
		(153 151 149 147)
		(152 150 151 153)
		(0 1 53 52)
		(51 50 102 103)
	)

	patch plateFix
	(
		(10 8 2 0)
		(0 2 3 1)
		(1 3 9 11)
		(11 9 8 10)
		(6 7 5 4)
		(8 6 4 2)
		(2 4 5 3)
		(3 5 7 9)
		(9 7 6 8)
		(20 18 12 10)
		(10 12 13 11)
		(11 13 19 21)
		(21 19 18 20)
		(16 17 15 14)
		(18 16 14 12)
		(12 14 15 13)
		(13 15 17 19)
		(19 17 16 18)
		(30 28 22 20)
		(20 22 23 21)
		(21 23 29 31)
		(31 29 28 30)
		(26 27 25 24)
		(28 26 24 22)
		(22 24 25 23)
		(23 25 27 29)
		(29 27 26 28)
		(40 38 32 30)
		(30 32 33 31)
		(31 33 39 41)
		(41 39 38 40)
		(36 37 35 34)
		(38 36 34 32)
		(32 34 35 33)
		(33 35 37 39)
		(39 37 36 38)
		(50 48 42 40)
		(40 42 43 41)
		(41 43 49 51)
		(51 49 48 50)
		(46 47 45 44)
		(48 46 44 42)
		(42 44 45 43)
		(43 45 47 49)
		(49 47 46 48)
	)

);

mergePatchPairs
(
);


// ************************************************************************* //

