/*--------------------------------*- C++ -*----------------------------------*\
| =========                 |                                                 |
| \      /  F ield         | foam-extend: Open Source CFD                    |
|  \    /   O peration     | Version:     4.0                                |
|   \  /    A nd           | Web:         http://www.foam-extend.org         |
|    \/     M anipulation  |                                                 |
\*---------------------------------------------------------------------------*/
FoamFile
{
    version     2.0;
    format      ascii;
    class       dictionary;
    object      blockMeshDict;
}
// * * * * * * * * * * * * * * * * * * * * * * * * * * * * * * * * * * * * * //

convertToMeters 0.001;
vertices
(
	(823.2233 823.2233 0)         //0 (0)
	(1176.7767 823.2233 0)        //1 (1)
    (1176.7767 1176.7767 0)       //7 (2)
    (823.2233 1176.7767 0)        //6 (3)
	(911.6117 911.6117 0)         //2 (4)
	(1088.3883 911.6117 0)        //3 (5)
    (1088.3883 1088.3883 0)       //5 (6)
	(911.6117 1088.3883 0)        //4 (7)

	(823.2233 823.2233 1500)      //8 (8)
	(1176.7767 823.2233 1500)     //9 (9)
    (1176.7767 1176.7767 1500)    //15 (10)
    (823.2233 1176.7767 1500)     //14 (11)
	(911.6117 911.6117 1500)      //10 (12)
	(1088.3883 911.6117 1500)     //11 (13)
	(1088.3883 1088.3883 1500)    //13 (14)
	(911.6117 1088.3883 1500)     //12 (15)	
);

blocks
(
    hex (4 5 6 7 12 13 14 15) (1 1 2) simpleGrading (1 1 1) // Original:  (2 3 5 4 10 11 13 12)
    hex (0 4 7 3 8 12 15 11) (1 1 2) simpleGrading (1 1 1)  // Original: (0 2 4 6 8 10 12 14)
    hex (1 5 4 0 9 13 12 8) (1 1 2) simpleGrading (1 1 1)   // Original: (1 3 2 0 9 11 10 8)
    hex (2 6 5 1 10 14 13 9) (1 1 2) simpleGrading (1 1 1) // Original:  (3 1 7 5 11 9 15 13) (7 5 3 1 15 13 11 9)
    hex (3 7 6 2 11 15 14 10) (1 1 2) simpleGrading (1 1 1) // Original: (6 4 5 7 14 12 13 15)
    // hex (0 1 2 3 4 5 6 7) (1 1 2) simpleGrading (1 1 1)
);

edges
(
    arc 0 1 (1000.0 750.0 0)          // Original: 0→1 (unchanged)
    arc 1 7 (1250.0 1000.0 0)         // Original: 1→2 (2 is now 7)
    arc 7 6 (1000.0 1250.0 0)         // Original: 2→3 (2→7, 3→6)
    arc 6 0 (750.0 1000.0 0)          // Original: 3→0 (3→6)
    arc 8 9 (1000.0 750.0 1500)       // Original: 8→9 (unchanged)
    arc 9 15 (1250.0 1000.0 1500)     // Original: 9→10 (10 is now 15)
    arc 15 14 (1000.0 1250.0 1500)    // Original: 10→11 (10→15, 11→14)
    arc 14 8 (750.0 1000.0 1500)      // Original: 11→8 (11→14)
);

patches
(
    patch bristle
    (
        (12 13 14 15)  // Original: (12 13 14 15)
        (8 12 15 11)    // Original: (8 12 15 11)
        (8 9 13 12)     // Original: (8 9 13 12)
        (13 9 10 14)    // Original: (13 9 10 14)
        (15 14 10 11)   // Original: (15 14 10 11)
        (0 1 9 8)       // Original: (0 1 9 8) - unchanged
        (1 2 10 9)      // Original: (1 2 10 9)
        (2 3 11 10)     // Original: (2 3 11 10)
        (3 0 8 11)      // Original: (3 0 8 11)
        // (0 1 5 4)
		// (1 2 6 5)
		// (2 3 7 6)
		// (3 0 4 7)
		// (4 5 6 7)
    )

    patch plateFix
    (
        (4 5 6 7)       // Original: (4 5 6 7)
        (0 4 7 3)       // Original: (0 4 7 3)
        (0 1 5 4)       // Original: (0 1 5 4)
        (5 1 2 6)       // Original: (5 1 2 6)
        (7 6 2 3)       // Original: (7 6 2 3)
        // (0 1 2 3)
    )
)

mergePatchPairs
(
);


// ************************************************************************* //


