/*--------------------------------*- C++ -*----------------------------------*\
| =========                 |                                                 |
| \      /  F ield         | foam-extend: Open Source CFD                    |
|  \    /   O peration     | Version:     4.0                                |
|   \  /    A nd           | Web:         http://www.foam-extend.org         |
|    \/     M anipulation  |                                                 |
\*---------------------------------------------------------------------------*/
FoamFile
{
    version     2.0;
    format      ascii;
    class       dictionary;
    object      blockMeshDict;
}
// * * * * * * * * * * * * * * * * * * * * * * * * * * * * * * * * * * * * * //

convertToMeters 0.001;
vertices
(
	(0 0 0)      //0
	(600 0 0)      //1
	(1200 0 0)      //2
	(1800 0 0)      //3
	(0 550 0)      //4
	(600 550 0)      //5
	(1200 550 0)      //6
	(1800 550 0)      //7
	(0 1100 0)      //8
	(600 1100 0)      //9
	(1200 1100 0)      //10
	(1800 1100 0)      //11
	(0 1650 0)      //12
	(600 1650 0)      //13
	(1200 1650 0)      //14
	(1800 1650 0)      //15
	(0 2200 0)      //16
	(600 2200 0)      //17
	(1200 2200 0)      //18
	(1800 2200 0)      //19
	(0 2750 0)      //20
	(600 2750 0)      //21
	(1200 2750 0)      //22
	(1800 2750 0)      //23
	(0 3300 0)      //24
	(600 3300 0)      //25
	(1200 3300 0)      //26
	(1800 3300 0)      //27
	(0 3850 0)      //28
	(600 3850 0)      //29
	(1200 3850 0)      //30
	(1800 3850 0)      //31
	(0 0 150)      //32
	(600 0 150)      //33
	(1200 0 150)      //34
	(1800 0 150)      //35
	(0 550 150)      //36
	(600 550 150)      //37
	(1200 550 150)      //38
	(1800 550 150)      //39
	(723.2233 648.2233 150)      //40
	(1076.7767 648.2233 150)      //41
	(723.2233 1001.7767 150)      //42
	(1076.7767 1001.7767 150)      //43
	(0 1100 150)      //44
	(600 1100 150)      //45
	(1200 1100 150)      //46
	(1800 1100 150)      //47
	(723.2233 1198.2233 150)      //48
	(1076.7767 1198.2233 150)      //49
	(723.2233 1551.7767 150)      //50
	(1076.7767 1551.7767 150)      //51
	(0 1650 150)      //52
	(600 1650 150)      //53
	(1200 1650 150)      //54
	(1800 1650 150)      //55
	(723.2233 1748.2233 150)      //56
	(1076.7767 1748.2233 150)      //57
	(723.2233 2101.7767 150)      //58
	(1076.7767 2101.7767 150)      //59
	(0 2200 150)      //60
	(600 2200 150)      //61
	(1200 2200 150)      //62
	(1800 2200 150)      //63
	(723.2233 2298.2233 150)      //64
	(1076.7767 2298.2233 150)      //65
	(723.2233 2651.7767 150)      //66
	(1076.7767 2651.7767 150)      //67
	(0 2750 150)      //68
	(600 2750 150)      //69
	(1200 2750 150)      //70
	(1800 2750 150)      //71
	(723.2233 2848.2233 150)      //72
	(1076.7767 2848.2233 150)      //73
	(723.2233 3201.7767 150)      //74
	(1076.7767 3201.7767 150)      //75
	(0 3300 150)      //76
	(600 3300 150)      //77
	(1200 3300 150)      //78
	(1800 3300 150)      //79
	(0 3850 150)      //80
	(600 3850 150)      //81
	(1200 3850 150)      //82
	(1800 3850 150)      //83
	(0 0 1650)      //84
	(600 0 1650)      //85
	(1200 0 1650)      //86
	(1800 0 1650)      //87
	(0 550 1650)      //88
	(600 550 1650)      //89
	(1200 550 1650)      //90
	(1800 550 1650)      //91
	(723.2233 648.2233 1650)      //92
	(1076.7767 648.2233 1650)      //93
	(811.6117 736.6117 1650)      //94
	(988.3883 736.6117 1650)      //95
	(811.6117 913.3883 1650)      //96
	(988.3883 913.3883 1650)      //97
	(723.2233 1001.7767 1650)      //98
	(1076.7767 1001.7767 1650)      //99
	(0 1100 1650)      //100
	(600 1100 1650)      //101
	(1200 1100 1650)      //102
	(1800 1100 1650)      //103
	(723.2233 1198.2233 1650)      //104
	(1076.7767 1198.2233 1650)      //105
	(811.6117 1286.6117 1650)      //106
	(988.3883 1286.6117 1650)      //107
	(811.6117 1463.3883 1650)      //108
	(988.3883 1463.3883 1650)      //109
	(723.2233 1551.7767 1650)      //110
	(1076.7767 1551.7767 1650)      //111
	(0 1650 1650)      //112
	(600 1650 1650)      //113
	(1200 1650 1650)      //114
	(1800 1650 1650)      //115
	(723.2233 1748.2233 1650)      //116
	(1076.7767 1748.2233 1650)      //117
	(811.6117 1836.6117 1650)      //118
	(988.3883 1836.6117 1650)      //119
	(811.6117 2013.3883 1650)      //120
	(988.3883 2013.3883 1650)      //121
	(723.2233 2101.7767 1650)      //122
	(1076.7767 2101.7767 1650)      //123
	(0 2200 1650)      //124
	(600 2200 1650)      //125
	(1200 2200 1650)      //126
	(1800 2200 1650)      //127
	(723.2233 2298.2233 1650)      //128
	(1076.7767 2298.2233 1650)      //129
	(811.6117 2386.6117 1650)      //130
	(988.3883 2386.6117 1650)      //131
	(811.6117 2563.3883 1650)      //132
	(988.3883 2563.3883 1650)      //133
	(723.2233 2651.7767 1650)      //134
	(1076.7767 2651.7767 1650)      //135
	(0 2750 1650)      //136
	(600 2750 1650)      //137
	(1200 2750 1650)      //138
	(1800 2750 1650)      //139
	(723.2233 2848.2233 1650)      //140
	(1076.7767 2848.2233 1650)      //141
	(811.6117 2936.6117 1650)      //142
	(988.3883 2936.6117 1650)      //143
	(811.6117 3113.3883 1650)      //144
	(988.3883 3113.3883 1650)      //145
	(723.2233 3201.7767 1650)      //146
	(1076.7767 3201.7767 1650)      //147
	(0 3300 1650)      //148
	(600 3300 1650)      //149
	(1200 3300 1650)      //150
	(1800 3300 1650)      //151
	(0 3850 1650)      //152
	(600 3850 1650)      //153
	(1200 3850 1650)      //154
	(1800 3850 1650)      //155
	(0 0 2150)      //156
	(600 0 2150)      //157
	(1200 0 2150)      //158
	(1800 0 2150)      //159
	(0 550 2150)      //160
	(600 550 2150)      //161
	(1200 550 2150)      //162
	(1800 550 2150)      //163
	(723.2233 648.2233 2150)      //164
	(1076.7767 648.2233 2150)      //165
	(811.6117 736.6117 2150)      //166
	(988.3883 736.6117 2150)      //167
	(811.6117 913.3883 2150)      //168
	(988.3883 913.3883 2150)      //169
	(723.2233 1001.7767 2150)      //170
	(1076.7767 1001.7767 2150)      //171
	(0 1100 2150)      //172
	(600 1100 2150)      //173
	(1200 1100 2150)      //174
	(1800 1100 2150)      //175
	(723.2233 1198.2233 2150)      //176
	(1076.7767 1198.2233 2150)      //177
	(811.6117 1286.6117 2150)      //178
	(988.3883 1286.6117 2150)      //179
	(811.6117 1463.3883 2150)      //180
	(988.3883 1463.3883 2150)      //181
	(723.2233 1551.7767 2150)      //182
	(1076.7767 1551.7767 2150)      //183
	(0 1650 2150)      //184
	(600 1650 2150)      //185
	(1200 1650 2150)      //186
	(1800 1650 2150)      //187
	(723.2233 1748.2233 2150)      //188
	(1076.7767 1748.2233 2150)      //189
	(811.6117 1836.6117 2150)      //190
	(988.3883 1836.6117 2150)      //191
	(811.6117 2013.3883 2150)      //192
	(988.3883 2013.3883 2150)      //193
	(723.2233 2101.7767 2150)      //194
	(1076.7767 2101.7767 2150)      //195
	(0 2200 2150)      //196
	(600 2200 2150)      //197
	(1200 2200 2150)      //198
	(1800 2200 2150)      //199
	(723.2233 2298.2233 2150)      //200
	(1076.7767 2298.2233 2150)      //201
	(811.6117 2386.6117 2150)      //202
	(988.3883 2386.6117 2150)      //203
	(811.6117 2563.3883 2150)      //204
	(988.3883 2563.3883 2150)      //205
	(723.2233 2651.7767 2150)      //206
	(1076.7767 2651.7767 2150)      //207
	(0 2750 2150)      //208
	(600 2750 2150)      //209
	(1200 2750 2150)      //210
	(1800 2750 2150)      //211
	(723.2233 2848.2233 2150)      //212
	(1076.7767 2848.2233 2150)      //213
	(811.6117 2936.6117 2150)      //214
	(988.3883 2936.6117 2150)      //215
	(811.6117 3113.3883 2150)      //216
	(988.3883 3113.3883 2150)      //217
	(723.2233 3201.7767 2150)      //218
	(1076.7767 3201.7767 2150)      //219
	(0 3300 2150)      //220
	(600 3300 2150)      //221
	(1200 3300 2150)      //222
	(1800 3300 2150)      //223
	(0 3850 2150)      //224
	(600 3850 2150)      //225
	(1200 3850 2150)      //226
	(1800 3850 2150)      //227

);

blocks
(
	hex (0 1 5 4 32 33 37 36) (5 5 1) simpleGrading (1 1 1)
	hex (4 5 9 8 36 37 45 44) (5 5 1) simpleGrading (1 1 1)
	hex (8 9 13 12 44 45 53 52) (5 5 1) simpleGrading (1 1 1)
	hex (12 13 17 16 52 53 61 60) (5 5 1) simpleGrading (1 1 1)
	hex (16 17 21 20 60 61 69 68) (5 5 1) simpleGrading (1 1 1)
	hex (20 21 25 24 68 69 77 76) (5 5 1) simpleGrading (1 1 1)
	hex (24 25 29 28 76 77 81 80) (5 5 1) simpleGrading (1 1 1)

	hex (2 3 7 6 34 35 39 38) (5 5 1) simpleGrading (1 1 1)
	hex (6 7 11 10 38 39 47 46) (5 5 1) simpleGrading (1 1 1)
	hex (10 11 15 14 46 47 55 54) (5 5 1) simpleGrading (1 1 1)
	hex (14 15 19 18 54 55 63 62) (5 5 1) simpleGrading (1 1 1)
	hex (18 19 23 22 62 63 71 70) (5 5 1) simpleGrading (1 1 1)
	hex (22 23 27 26 70 71 79 78) (5 5 1) simpleGrading (1 1 1)
	hex (26 27 31 30 78 79 83 82) (5 5 1) simpleGrading (1 1 1)

	hex (1 2 6 5 33 34 38 37) (5 5 1) simpleGrading (1 1 1)
	hex (25 26 30 29 57 58 62 61) (5 5 1) simpleGrading (1 1 1)

	hex (32 33 37 36 84 85 89 88) (5 5 10) simpleGrading (1 1 1)
	hex (36 37 45 44 88 89 101 100) (5 5 10) simpleGrading (1 1 1)
	hex (44 45 53 52 100 101 113 112) (5 5 10) simpleGrading (1 1 1)
	hex (52 53 61 60 112 113 125 124) (5 5 10) simpleGrading (1 1 1)
	hex (60 61 69 68 124 125 137 136) (5 5 10) simpleGrading (1 1 1)
	hex (68 69 77 76 136 137 149 148) (5 5 10) simpleGrading (1 1 1)
	hex (76 77 81 80 148 149 153 152) (5 5 10) simpleGrading (1 1 1)

	hex (34 35 39 38 86 87 91 90) (5 5 10) simpleGrading (1 1 1)
	hex (38 39 47 46 90 91 103 102) (5 5 10) simpleGrading (1 1 1)
	hex (46 47 55 54 102 103 115 114) (5 5 10) simpleGrading (1 1 1)
	hex (54 55 63 62 114 115 127 126) (5 5 10) simpleGrading (1 1 1)
	hex (62 63 71 70 126 127 139 138) (5 5 10) simpleGrading (1 1 1)
	hex (70 71 79 78 138 139 151 150) (5 5 10) simpleGrading (1 1 1)
	hex (78 79 83 82 150 151 155 154) (5 5 10) simpleGrading (1 1 1)

	hex (33 34 38 37 85 86 90 89) (5 5 10) simpleGrading (1 1 1)
	hex (77 78 82 81 129 130 134 133) (5 5 10) simpleGrading (1 1 1)

	hex (37 40 42 45 89 92 98 101) (5 5 10) simpleGrading (1 1 1)
	hex (38 41 40 37 90 93 92 89) (5 5 10) simpleGrading (1 1 1)
	hex (46 43 41 38 102 99 93 90) (5 5 10) simpleGrading (1 1 1)
	hex (45 42 43 46 101 98 99 102) (5 5 10) simpleGrading (1 1 1)
	hex (45 48 50 53 101 104 110 113) (5 5 10) simpleGrading (1 1 1)
	hex (46 49 48 45 102 105 104 101) (5 5 10) simpleGrading (1 1 1)
	hex (54 51 49 46 114 111 105 102) (5 5 10) simpleGrading (1 1 1)
	hex (53 50 51 54 113 110 111 114) (5 5 10) simpleGrading (1 1 1)
	hex (53 56 58 61 113 116 122 125) (5 5 10) simpleGrading (1 1 1)
	hex (54 57 56 53 114 117 116 113) (5 5 10) simpleGrading (1 1 1)
	hex (62 59 57 54 126 123 117 114) (5 5 10) simpleGrading (1 1 1)
	hex (61 58 59 62 125 122 123 126) (5 5 10) simpleGrading (1 1 1)
	hex (61 64 66 69 125 128 134 137) (5 5 10) simpleGrading (1 1 1)
	hex (62 65 64 61 126 129 128 125) (5 5 10) simpleGrading (1 1 1)
	hex (70 67 65 62 138 135 129 126) (5 5 10) simpleGrading (1 1 1)
	hex (69 66 67 70 137 134 135 138) (5 5 10) simpleGrading (1 1 1)
	hex (69 72 74 77 137 140 146 149) (5 5 10) simpleGrading (1 1 1)
	hex (70 73 72 69 138 141 140 137) (5 5 10) simpleGrading (1 1 1)
	hex (78 75 73 70 150 147 141 138) (5 5 10) simpleGrading (1 1 1)
	hex (77 74 75 78 149 146 147 150) (5 5 10) simpleGrading (1 1 1)

	hex (84 85 89 88 156 157 161 160) (5 5 3) simpleGrading (1 1 1)
	hex (88 89 101 100 160 161 173 172) (5 5 3) simpleGrading (1 1 1)
	hex (100 101 113 112 172 173 185 184) (5 5 3) simpleGrading (1 1 1)
	hex (112 113 125 124 184 185 197 196) (5 5 3) simpleGrading (1 1 1)
	hex (124 125 137 136 196 197 209 208) (5 5 3) simpleGrading (1 1 1)
	hex (136 137 149 148 208 209 221 220) (5 5 3) simpleGrading (1 1 1)
	hex (148 149 153 152 220 221 225 224) (5 5 3) simpleGrading (1 1 1)

	hex (86 87 91 90 158 159 163 162) (5 5 3) simpleGrading (1 1 1)
	hex (90 91 103 102 162 163 175 174) (5 5 3) simpleGrading (1 1 1)
	hex (102 103 115 114 174 175 187 186) (5 5 3) simpleGrading (1 1 1)
	hex (114 115 127 126 186 187 199 198) (5 5 3) simpleGrading (1 1 1)
	hex (126 127 139 138 198 199 211 210) (5 5 3) simpleGrading (1 1 1)
	hex (138 139 151 150 210 211 223 222) (5 5 3) simpleGrading (1 1 1)
	hex (150 151 155 154 222 223 227 226) (5 5 3) simpleGrading (1 1 1)

	hex (85 86 90 89 157 158 162 161) (5 5 3) simpleGrading (1 1 1)
	hex (149 150 154 153 221 222 226 225) (5 5 3) simpleGrading (1 1 1)

	hex (89 92 98 101 161 164 170 173) (5 5 3) simpleGrading (1 1 1)
	hex (90 93 92 89 162 165 164 161) (5 5 3) simpleGrading (1 1 1)
	hex (102 99 93 90 174 171 165 162) (5 5 3) simpleGrading (1 1 1)
	hex (101 98 99 102 173 170 171 174) (5 5 3) simpleGrading (1 1 1)
	hex (101 104 110 113 173 176 182 185) (5 5 3) simpleGrading (1 1 1)
	hex (102 105 104 101 174 177 176 173) (5 5 3) simpleGrading (1 1 1)
	hex (114 111 105 102 186 183 177 174) (5 5 3) simpleGrading (1 1 1)
	hex (113 110 111 114 185 182 183 186) (5 5 3) simpleGrading (1 1 1)
	hex (113 116 122 125 185 188 194 197) (5 5 3) simpleGrading (1 1 1)
	hex (114 117 116 113 186 189 188 185) (5 5 3) simpleGrading (1 1 1)
	hex (126 123 117 114 198 195 189 186) (5 5 3) simpleGrading (1 1 1)
	hex (125 122 123 126 197 194 195 198) (5 5 3) simpleGrading (1 1 1)
	hex (125 128 134 137 197 200 206 209) (5 5 3) simpleGrading (1 1 1)
	hex (126 129 128 125 198 201 200 197) (5 5 3) simpleGrading (1 1 1)
	hex (138 135 129 126 210 207 201 198) (5 5 3) simpleGrading (1 1 1)
	hex (137 134 135 138 209 206 207 210) (5 5 3) simpleGrading (1 1 1)
	hex (137 140 146 149 209 212 218 221) (5 5 3) simpleGrading (1 1 1)
	hex (138 141 140 137 210 213 212 209) (5 5 3) simpleGrading (1 1 1)
	hex (150 147 141 138 222 219 213 210) (5 5 3) simpleGrading (1 1 1)
	hex (149 146 147 150 221 218 219 222) (5 5 3) simpleGrading (1 1 1)

	hex (94 95 97 96 166 167 169 168) (5 5 3) simpleGrading (1 1 1)
	hex (92 94 96 98 164 166 168 170) (5 5 3) simpleGrading (1 1 1)
	hex (93 95 94 92 165 167 166 164) (5 5 3) simpleGrading (1 1 1)
	hex (99 97 95 93 171 169 167 165) (5 5 3) simpleGrading (1 1 1)
	hex (98 96 97 99 170 168 169 171) (5 5 3) simpleGrading (1 1 1)
	hex (106 107 109 108 178 179 181 180) (5 5 3) simpleGrading (1 1 1)
	hex (104 106 108 110 176 178 180 182) (5 5 3) simpleGrading (1 1 1)
	hex (105 107 106 104 177 179 178 176) (5 5 3) simpleGrading (1 1 1)
	hex (111 109 107 105 183 181 179 177) (5 5 3) simpleGrading (1 1 1)
	hex (110 108 109 111 182 180 181 183) (5 5 3) simpleGrading (1 1 1)
	hex (118 119 121 120 190 191 193 192) (5 5 3) simpleGrading (1 1 1)
	hex (116 118 120 122 188 190 192 194) (5 5 3) simpleGrading (1 1 1)
	hex (117 119 118 116 189 191 190 188) (5 5 3) simpleGrading (1 1 1)
	hex (123 121 119 117 195 193 191 189) (5 5 3) simpleGrading (1 1 1)
	hex (122 120 121 123 194 192 193 195) (5 5 3) simpleGrading (1 1 1)
	hex (130 131 133 132 202 203 205 204) (5 5 3) simpleGrading (1 1 1)
	hex (128 130 132 134 200 202 204 206) (5 5 3) simpleGrading (1 1 1)
	hex (129 131 130 128 201 203 202 200) (5 5 3) simpleGrading (1 1 1)
	hex (135 133 131 129 207 205 203 201) (5 5 3) simpleGrading (1 1 1)
	hex (134 132 133 135 206 204 205 207) (5 5 3) simpleGrading (1 1 1)
	hex (142 143 145 144 214 215 217 216) (5 5 3) simpleGrading (1 1 1)
	hex (140 142 144 146 212 214 216 218) (5 5 3) simpleGrading (1 1 1)
	hex (141 143 142 140 213 215 214 212) (5 5 3) simpleGrading (1 1 1)
	hex (147 145 143 141 219 217 215 213) (5 5 3) simpleGrading (1 1 1)
	hex (146 144 145 147 218 216 217 219) (5 5 3) simpleGrading (1 1 1)

);

edges
(
	arc 40 41 (900.0 1675.0 150)
	arc 41 47 (1150.0 1925.0 150)
	arc 47 46 (900.0 2175.0 150)
	arc 46 40 (650.0 1925.0 150)
	arc 48 49 (900.0 1675.0 150)
	arc 49 55 (1150.0 1925.0 150)
	arc 55 54 (900.0 2175.0 150)
	arc 54 48 (650.0 1925.0 150)
	arc 56 57 (900.0 1675.0 150)
	arc 57 63 (1150.0 1925.0 150)
	arc 63 62 (900.0 2175.0 150)
	arc 62 56 (650.0 1925.0 150)
	arc 64 65 (900.0 1675.0 150)
	arc 65 71 (1150.0 1925.0 150)
	arc 71 70 (900.0 2175.0 150)
	arc 70 64 (650.0 1925.0 150)
	arc 72 73 (900.0 1675.0 150)
	arc 73 79 (1150.0 1925.0 150)
	arc 79 78 (900.0 2175.0 150)
	arc 78 72 (650.0 1925.0 150)

	arc 92 93 (900.0 1675.0 1650)
	arc 93 99 (1150.0 1925.0 1650)
	arc 99 98 (900.0 2175.0 1650)
	arc 98 92 (650.0 1925.0 1650)
	arc 104 105 (900.0 1675.0 1650)
	arc 105 111 (1150.0 1925.0 1650)
	arc 111 110 (900.0 2175.0 1650)
	arc 110 104 (650.0 1925.0 1650)
	arc 116 117 (900.0 1675.0 1650)
	arc 117 123 (1150.0 1925.0 1650)
	arc 123 122 (900.0 2175.0 1650)
	arc 122 116 (650.0 1925.0 1650)
	arc 128 129 (900.0 1675.0 1650)
	arc 129 135 (1150.0 1925.0 1650)
	arc 135 134 (900.0 2175.0 1650)
	arc 134 128 (650.0 1925.0 1650)
	arc 140 141 (900.0 1675.0 1650)
	arc 141 147 (1150.0 1925.0 1650)
	arc 147 146 (900.0 2175.0 1650)
	arc 146 140 (650.0 1925.0 1650)

	arc 164 165 (900.0 1675.0 2150.0)
	arc 165 171 (1150.0 1925.0 2150.0)
	arc 171 170 (900.0 2175.0 2150.0)
	arc 170 164 (650.0 1925.0 2150.0)
	arc 176 177 (900.0 1675.0 2150.0)
	arc 177 183 (1150.0 1925.0 2150.0)
	arc 183 182 (900.0 2175.0 2150.0)
	arc 182 176 (650.0 1925.0 2150.0)
	arc 188 189 (900.0 1675.0 2150.0)
	arc 189 195 (1150.0 1925.0 2150.0)
	arc 195 194 (900.0 2175.0 2150.0)
	arc 194 188 (650.0 1925.0 2150.0)
	arc 200 201 (900.0 1675.0 2150.0)
	arc 201 207 (1150.0 1925.0 2150.0)
	arc 207 206 (900.0 2175.0 2150.0)
	arc 206 200 (650.0 1925.0 2150.0)
	arc 212 213 (900.0 1675.0 2150.0)
	arc 213 219 (1150.0 1925.0 2150.0)
	arc 219 218 (900.0 2175.0 2150.0)
	arc 218 212 (650.0 1925.0 2150.0)
);

patches
(
	patch bottom
	(
		(4 5 1 0)
		(5 6 2 1)
		(6 7 3 2)
		(8 9 5 4)
		(10 11 7 6)
		(12 13 9 8)
		(14 15 11 10)
		(16 17 13 12)
		(18 19 15 14)
		(20 21 17 16)
		(22 23 19 18)
		(24 25 21 20)
		(26 27 23 22)
		(28 29 25 24)
		(29 30 26 25)
		(30 31 27 26)
	)

	patch top
	(
		(156 157 161 160)
		(160 161 173 172)
		(172 173 185 184)
		(184 185 197 196)
		(196 197 209 208)
		(208 209 221 220)
		(220 221 225 224)
		(158 159 163 162)
		(162 163 175 174)
		(174 175 187 186)
		(186 187 199 198)
		(198 199 211 210)
		(210 211 223 222)
		(222 223 227 226)
		(157 158 162 161)
		(221 222 226 225)
		(161 164 170 173)
		(162 165 164 161)
		(174 171 165 162)
		(173 170 171 174)
		(173 176 182 185)
		(174 177 176 173)
		(186 183 177 174)
		(185 182 183 186)
		(185 188 194 197)
		(186 189 188 185)
		(198 195 189 186)
		(197 194 195 198)
		(197 200 206 209)
		(198 201 200 197)
		(210 207 201 198)
		(209 206 207 210)
		(209 212 218 221)
		(210 213 212 209)
		(222 219 213 210)
		(221 218 219 222)
		(166 167 169 168)
		(164 166 168 170)
		(165 167 166 164)
		(171 169 167 165)
		(170 168 169 171)
		(178 179 181 180)
		(176 178 180 182)
		(177 179 178 176)
		(183 181 179 177)
		(182 180 181 183)
		(190 191 193 192)
		(188 190 192 194)
		(189 191 190 188)
		(195 193 191 189)
		(194 192 193 195)
		(202 203 205 204)
		(200 202 204 206)
		(201 203 202 200)
		(207 205 203 201)
		(206 204 205 207)
		(214 215 217 216)
		(212 214 216 218)
		(213 215 214 212)
		(219 217 215 213)
		(218 216 217 219)
	)

	patch inlet
	(
		(32 36 4 0)
		(84 88 36 32)
		(156 160 88 84)
		(36 44 8 4)
		(88 100 44 36)
		(160 172 100 88)
		(44 52 12 8)
		(100 112 52 44)
		(172 184 112 100)
		(52 60 16 12)
		(112 124 60 52)
		(184 196 124 112)
		(60 68 20 16)
		(124 136 68 60)
		(196 208 136 124)
		(68 76 24 20)
		(136 148 76 68)
		(208 220 148 136)
		(76 80 28 24)
		(148 152 80 76)
		(220 224 152 148)
	)

	patch outlet
	(
		(3 7 39 35)
		(35 39 91 87)
		(87 91 163 159)
		(7 11 47 39)
		(39 47 103 91)
		(91 103 175 163)
		(11 15 55 47)
		(47 55 115 103)
		(103 115 187 175)
		(15 19 63 55)
		(55 63 127 115)
		(115 127 199 187)
		(19 23 71 63)
		(63 71 139 127)
		(127 139 211 199)
		(23 27 79 71)
		(71 79 151 139)
		(139 151 223 211)
		(27 31 83 79)
		(79 83 155 151)
		(151 155 227 223)
	)

	patch bristle
	(
		(9 45 37 5)
		(10 46 38 6)
		(13 53 45 9)
		(14 54 46 10)
		(17 61 53 13)
		(18 62 54 14)
		(21 69 61 17)
		(22 70 62 18)
		(25 77 69 21)
		(26 78 70 22)
		(5 37 38 6)
		(26 78 77 25)
		(45 42 40 37)
		(37 40 41 38)
		(38 41 43 46)
		(46 43 42 45)
		(53 50 48 45)
		(45 48 49 46)
		(46 49 51 54)
		(54 51 50 53)
		(61 58 56 53)
		(53 56 57 54)
		(54 57 59 62)
		(62 59 58 61)
		(69 66 64 61)
		(61 64 65 62)
		(62 65 67 70)
		(70 67 66 69)
		(77 74 72 69)
		(69 72 73 70)
		(70 73 75 78)
		(78 75 74 77)
		(96 97 95 94)
		(98 96 94 92)
		(92 94 95 93)
		(93 95 97 99)
		(99 97 96 98)
		(42 98 92 40)
		(40 92 93 41)
		(41 93 99 43)
		(43 99 98 42)
		(108 109 107 106)
		(110 108 106 104)
		(104 106 107 105)
		(105 107 109 111)
		(111 109 108 110)
		(50 110 104 48)
		(48 104 105 49)
		(49 105 111 51)
		(51 111 110 50)
		(120 121 119 118)
		(122 120 118 116)
		(116 118 119 117)
		(117 119 121 123)
		(123 121 120 122)
		(58 122 116 56)
		(56 116 117 57)
		(57 117 123 59)
		(59 123 122 58)
		(132 133 131 130)
		(134 132 130 128)
		(128 130 131 129)
		(129 131 133 135)
		(135 133 132 134)
		(66 134 128 64)
		(64 128 129 65)
		(65 129 135 67)
		(67 135 134 66)
		(144 145 143 142)
		(146 144 142 140)
		(140 142 143 141)
		(141 143 145 147)
		(147 145 144 146)
		(74 146 140 72)
		(72 140 141 73)
		(73 141 147 75)
		(75 147 146 74)
	)

	patch frontAndBackPlanes
	(
		(0 1 33 32)
		(32 33 85 84)
		(84 85 157 156)
		(28 80 81 29)
		(80 152 153 81)
		(152 224 225 153)
		(1 2 34 33)
		(33 34 86 85)
		(85 86 158 157)
		(29 81 82 30)
		(81 153 154 82)
		(153 225 226 154)
		(2 3 35 34)
		(34 35 87 86)
		(86 87 159 158)
		(30 82 83 31)
		(82 154 155 83)
		(154 226 227 155)
	)
);

mergePatchPairs
(
);


// ************************************************************************* //

