/*--------------------------------*- C++ -*----------------------------------*\
| =========                 |                                                 |
| \      /  F ield         | foam-extend: Open Source CFD                    |
|  \    /   O peration     | Version:     4.0                                |
|   \  /    A nd           | Web:         http://www.foam-extend.org         |
|    \/     M anipulation  |                                                 |
\*---------------------------------------------------------------------------*/
FoamFile
{
    version     2.0;
    format      ascii;
    class       dictionary;
    object      blockMeshDict;
}
// * * * * * * * * * * * * * * * * * * * * * * * * * * * * * * * * * * * * * //

convertToMeters 0.000001;
vertices
(
	(0 0 0)      //0
	(14469.6699 0 0)      //1
	(15530.3301 0 0)      //2
	(30000 0 0)      //3
	(0 14469.6699 0)      //4
	(14469.6699 14469.6699 0)      //5
	(15530.3301 14469.6699 0)      //6
	(30000 14469.6699 0)      //7
	(14823.2233 14823.2233 0)      //8
	(15176.7767 14823.2233 0)      //9
	(14823.2233 15176.7767 0)      //10
	(15176.7767 15176.7767 0)      //11
	(0 15530.3301 0)      //12
	(14469.6699 15530.3301 0)      //13
	(15530.3301 15530.3301 0)      //14
	(30000 15530.3301 0)      //15
	(0 30000 0)      //16
	(14469.6699 30000 0)      //17
	(15530.3301 30000 0)      //18
	(30000 30000 0)      //19

	(0 0 15000)      //20
	(14469.6699 0 15000)      //21
	(15530.3301 0 15000)      //22
	(30000 0 15000)      //23
	(0 14469.6699 15000)      //24
	(14469.6699 14469.6699 15000)      //25
	(15530.3301 14469.6699 15000)      //26
	(30000 14469.6699 15000)      //27
	(14823.2233 14823.2233 15000)      //28
	(15176.7767 14823.2233 15000)      //29
	(14823.2233 15176.7767 15000)      //30
	(15176.7767 15176.7767 15000)      //31
	(0 15530.3301 15000)      //32
	(14469.6699 15530.3301 15000)      //33
	(15530.3301 15530.3301 15000)      //34
	(30000 15530.3301 15000)      //35
	(0 30000 15000)      //36
	(14469.6699 30000 15000)      //37
	(15530.3301 30000 15000)      //38
	(30000 30000 15000)      //39

	(0 0 30000)      //40
	(14469.6699 0 30000)      //41
	(15530.3301 0 30000)      //42
	(30000 0 30000)      //43
	(0 14469.6699 30000)      //44
	(14469.6699 14469.6699 30000)      //45
	(15530.3301 14469.6699 30000)      //46
	(30000 14469.6699 30000)      //47
	(14823.2233 14823.2233 30000)      //48
	(15176.7767 14823.2233 30000)      //49
	(14823.2233 15176.7767 30000)      //50
	(15176.7767 15176.7767 30000)      //51
	(0 15530.3301 30000)      //52
	(14469.6699 15530.3301 30000)      //53
	(15530.3301 15530.3301 30000)      //54
	(30000 15530.3301 30000)      //55
	(0 30000 30000)      //56
	(14469.6699 30000 30000)      //57
	(15530.3301 30000 30000)      //58
	(30000 30000 30000)      //59

);

blocks
(
	hex (0 1 5 4 20 21 25 24) (20 20 400) simpleGrading (1 1 1)
	hex (1 2 6 5 21 22 26 25) (40 20 400) simpleGrading (1 1 1)
	hex (2 3 7 6 22 23 27 26) (20 20 400) simpleGrading (1 1 1)
	hex (4 5 13 12 24 25 33 32) (20 40 400) simpleGrading (1 1 1)
	hex (5 8 10 13 25 28 30 33) (13 40 400) simpleGrading (0.5 1 1)
	hex (5 6 9 8 25 26 29 28) (40 13 400) simpleGrading (1 0.5 1)
	hex (9 6 14 11 29 26 34 31) (13 40 400) simpleGrading (0.5 1 1)
	hex (6 7 15 14 26 27 35 34) (20 40 400) simpleGrading (1 1 1)
	hex (10 11 14 13 30 31 34 33) (40 13 400) simpleGrading (1 0.5 1)
	hex (12 13 17 16 32 33 37 36) (20 20 400) simpleGrading (1 1 1)
	hex (13 14 18 17 33 34 38 37) (40 20 400) simpleGrading (1 1 1)
	hex (14 15 19 18 34 35 39 38) (20 20 400) simpleGrading (1 1 1)

	hex (20 21 25 24 40 41 45 44) (20 20 400) simpleGrading (1 1 1)
	hex (21 22 26 25 41 42 46 45) (40 20 400) simpleGrading (1 1 1)
	hex (22 23 27 26 42 43 47 46) (20 20 400) simpleGrading (1 1 1)
	hex (24 25 33 32 44 45 53 52) (20 40 400) simpleGrading (1 1 1)
	hex (25 28 30 33 45 48 50 53) (13 40 400) simpleGrading (0.5 1 1)
	hex (25 26 29 28 45 46 49 48) (40 13 400) simpleGrading (1 0.5 1)
	hex (29 26 34 31 49 46 54 51) (13 40 400) simpleGrading (0.5 1 1)
	hex (26 27 35 34 46 47 55 54) (20 40 400) simpleGrading (1 1 1)
	hex (30 31 34 33 50 51 54 53) (40 13 400) simpleGrading (1 0.5 1)
	hex (32 33 37 36 52 53 57 56) (20 20 400) simpleGrading (1 1 1)
	hex (33 34 38 37 53 54 58 57) (40 20 400) simpleGrading (1 1 1)
	hex (34 35 39 38 54 55 59 58) (20 20 400) simpleGrading (1 1 1)

);

edges
(
	arc 5 6 (15000.0 14250.0 0)
	arc 6 14 (15750.0 15000.0 0)
	arc 14 13 (15000.0 15750.0 0)
	arc 13 5 (14250.0 15000.0 0)
	arc 8 9 (15000.0 14750.0 0)
	arc 9 11 (15250.0 15000.0 0)
	arc 11 10 (15000.0 15250.0 0)
	arc 10 8 (14750.0 15000.0 0)

	arc 25 26 (15000.0 14250.0 15000)
	arc 26 34 (15750.0 15000.0 15000)
	arc 34 33 (15000.0 15750.0 15000)
	arc 33 25 (14250.0 15000.0 15000)
	arc 28 29 (15000.0 14750.0 15000)
	arc 29 31 (15250.0 15000.0 15000)
	arc 31 30 (15000.0 15250.0 15000)
	arc 30 28 (14750.0 15000.0 15000)

	arc 45 46 (15000.0 14250.0 30000)
	arc 46 54 (15750.0 15000.0 30000)
	arc 54 53 (15000.0 15750.0 30000)
	arc 53 45 (14250.0 15000.0 30000)
	arc 48 49 (15000.0 14750.0 30000)
	arc 49 51 (15250.0 15000.0 30000)
	arc 51 50 (15000.0 15250.0 30000)
	arc 50 48 (14750.0 15000.0 30000)

);

patches
(
	patch bottom
	(
		(0 1 5 4)
		(1 2 6 5)
		(2 3 7 6)
		(4 5 13 12)
		(5 8 10 13)
		(5 6 9 8)
		(9 6 14 11)
		(6 7 15 14)
		(10 11 14 13)
		(12 13 17 16)
		(13 14 18 17)
		(14 15 19 18)
	)

	patch top
	(
		(40 41 45 44)
		(41 42 46 45)
		(42 43 47 46)
		(44 45 53 52)
		(45 48 50 53)
		(45 46 49 48)
		(49 46 54 51)
		(46 47 55 54)
		(50 51 54 53)
		(52 53 57 56)
		(53 54 58 57)
		(54 55 59 58)
	)

	patch inlet
	(
		(40 20 24 44)
		(20 0 4 24)
		(44 24 32 52)
		(24 4 12 32)
		(52 32 36 56)
		(32 12 16 36)
	)

	patch outlet
	(
		(43 23 27 47)
		(23 3 7 27)
		(47 27 35 55)
		(27 7 15 35)
		(55 35 39 59)
		(35 15 19 39)
	)

	patch bristle
	(
		(8 9 29 28)
		(9 11 31 29)
		(10 11 31 30)
		(8 10 30 28)
		(28 29 31 30)
	)

	empty frontAndBackPlanes
	(
		(40 20 21 41)
		(20 0 1 21)
		(41 21 22 42)
		(21 1 2 22)
		(42 22 23 43)
		(22 2 3 23)
		(56 36 37 57)
		(36 16 17 37)
		(57 37 38 58)
		(37 17 18 38)
		(58 38 39 59)
		(38 18 19 39)
	)
);

mergePatchPairs
(
);


// ************************************************************************* //

