/*--------------------------------*- C++ -*----------------------------------*\
| =========                 |                                                 |
| \      /  F ield         | foam-extend: Open Source CFD                    |
|  \    /   O peration     | Version:     4.0                                |
|   \  /    A nd           | Web:         http://www.foam-extend.org         |
|    \/     M anipulation  |                                                 |
\*---------------------------------------------------------------------------*/
FoamFile
{
    version     2.0;
    format      ascii;
    class       dictionary;
    object      blockMeshDict;
}
// * * * * * * * * * * * * * * * * * * * * * * * * * * * * * * * * * * * * * //

convertToMeters 0.001;
vertices
(
	(0 0 0)      //0
	(600 0 0)      //1
	(1200 0 0)      //2
	(1800 0 0)      //3
	(0 550 0)      //4
	(600 550 0)      //5
	(1200 550 0)      //6
	(1800 550 0)      //7
	(0 3300 0)      //8
	(600 3300 0)      //9
	(1200 3300 0)      //10
	(1800 3300 0)      //11
	(0 3850 0)      //12
	(600 3850 0)      //13
	(1200 3850 0)      //14
	(1800 3850 0)      //15

	(0 0 150)      //16
	(600 0 150)      //17
	(1200 0 150)      //18
	(1800 0 150)      //19
	(0 550 150)      //20
	(600 550 150)      //21
	(1200 550 150)      //22
	(1800 550 150)      //23
	(0 3300 150)      //24
	(600 3300 150)      //25
	(1200 3300 150)      //26
	(1800 3300 150)      //27
	(0 3850 150)      //28
	(600 3850 150)      //29
	(1200 3850 150)      //30
	(1800 3850 150)      //31
	(723.2233 1748.2233 150)      //32
	(1076.7767 1748.2233 150)      //33
	(723.2233 2101.7767 150)      //34
	(1076.7767 2101.7767 150)      //35
	(723.2233 648.2233 150)      //36
	(1076.7767 648.2233 150)      //37
	(723.2233 1001.7767 150)      //38
	(1076.7767 1001.7767 150)      //39
	(600 1100 150)      //40
	(1200 1100 150)      //41
	(723.2233 2848.2233 150)      //42
	(1076.7767 2848.2233 150)      //43
	(723.2233 3201.7767 150)      //44
	(1076.7767 3201.7767 150)      //45
	(600 2750 150)      //46
	(1200 2750 150)      //47
	(723.2233 1198.2233 150)      //48
	(1076.7767 1198.2233 150)      //49
	(723.2233 1551.7767 150)      //50
	(1076.7767 1551.7767 150)      //51
	(600 1650 150)      //52
	(1200 1650 150)      //53
	(723.2233 2298.2233 150)      //54
	(1076.7767 2298.2233 150)      //55
	(723.2233 2651.7767 150)      //56
	(1076.7767 2651.7767 150)      //57
	(600 2200 150)      //58
	(1200 2200 150)      //59

	(0 0 1650)      //60
	(600 0 1650)      //61
	(1200 0 1650)      //62
	(1800 0 1650)      //63
	(0 550 1650)      //64
	(600 550 1650)      //65
	(1200 550 1650)      //66
	(1800 550 1650)      //67
	(0 3300 1650)      //68
	(600 3300 1650)      //69
	(1200 3300 1650)      //70
	(1800 3300 1650)      //71
	(0 3850 1650)      //72
	(600 3850 1650)      //73
	(1200 3850 1650)      //74
	(1800 3850 1650)      //75
	(723.2233 1748.2233 1650)      //76
	(1076.7767 1748.2233 1650)      //77
	(723.2233 2101.7767 1650)      //78
	(1076.7767 2101.7767 1650)      //79
	(723.2233 648.2233 1650)      //80
	(1076.7767 648.2233 1650)      //81
	(723.2233 1001.7767 1650)      //82
	(1076.7767 1001.7767 1650)      //83
	(600 1100 1650)      //84
	(1200 1100 1650)      //85
	(723.2233 2848.2233 1650)      //86
	(1076.7767 2848.2233 1650)      //87
	(723.2233 3201.7767 1650)      //88
	(1076.7767 3201.7767 1650)      //89
	(600 2750 1650)      //90
	(1200 2750 1650)      //91
	(723.2233 1198.2233 1650)      //92
	(1076.7767 1198.2233 1650)      //93
	(723.2233 1551.7767 1650)      //94
	(1076.7767 1551.7767 1650)      //95
	(600 1650 1650)      //96
	(1200 1650 1650)      //97
	(723.2233 2298.2233 1650)      //98
	(1076.7767 2298.2233 1650)      //99
	(723.2233 2651.7767 1650)      //100
	(1076.7767 2651.7767 1650)      //101
	(600 2200 1650)      //102
	(1200 2200 1650)      //103
	(811.6117 1836.6117 1650)      //104
	(988.3883 1836.6117 1650)      //105
	(988.3883 2013.3883 1650)      //106
	(811.6117 2013.3883 1650)      //107
	(811.6117 736.6117 1650)      //108
	(988.3883 736.6117 1650)      //109
	(988.3883 913.3883 1650)      //110
	(811.6117 913.3883 1650)      //111
	(811.6117 2936.6117 1650)      //112
	(988.3883 2936.6117 1650)      //113
	(988.3883 3113.3883 1650)      //114
	(811.6117 3113.3883 1650)      //115
	(811.6117 1286.6117 1650)      //116
	(988.3883 1286.6117 1650)      //117
	(988.3883 1463.3883 1650)      //118
	(811.6117 1463.3883 1650)      //119
	(811.6117 2386.6117 1650)      //120
	(988.3883 2386.6117 1650)      //121
	(988.3883 2563.3883 1650)      //122
	(811.6117 2563.3883 1650)      //123

	(0 0 2150)      //124
	(600 0 2150)      //125
	(1200 0 2150)      //126
	(1800 0 2150)      //127
	(0 550 2150)      //128
	(600 550 2150)      //129
	(1200 550 2150)      //130
	(1800 550 2150)      //131
	(0 3300 2150)      //132
	(600 3300 2150)      //133
	(1200 3300 2150)      //134
	(1800 3300 2150)      //135
	(0 3850 2150)      //136
	(600 3850 2150)      //137
	(1200 3850 2150)      //138
	(1800 3850 2150)      //139
	(723.2233 1748.2233 2150)      //140
	(1076.7767 1748.2233 2150)      //141
	(723.2233 2101.7767 2150)      //142
	(1076.7767 2101.7767 2150)      //143
	(723.2233 648.2233 2150)      //144
	(1076.7767 648.2233 2150)      //145
	(723.2233 1001.7767 2150)      //146
	(1076.7767 1001.7767 2150)      //147
	(600 1100 2150)      //148
	(1200 1100 2150)      //149
	(723.2233 2848.2233 2150)      //150
	(1076.7767 2848.2233 2150)      //151
	(723.2233 3201.7767 2150)      //152
	(1076.7767 3201.7767 2150)      //153
	(600 2750 2150)      //154
	(1200 2750 2150)      //155
	(723.2233 1198.2233 2150)      //156
	(1076.7767 1198.2233 2150)      //157
	(723.2233 1551.7767 2150)      //158
	(1076.7767 1551.7767 2150)      //159
	(600 1650 2150)      //160
	(1200 1650 2150)      //161
	(723.2233 2298.2233 2150)      //162
	(1076.7767 2298.2233 2150)      //163
	(723.2233 2651.7767 2150)      //164
	(1076.7767 2651.7767 2150)      //165
	(600 2200 2150)      //166
	(1200 2200 2150)      //167
	(811.6117 1836.6117 2150)      //168
	(988.3883 1836.6117 2150)      //169
	(988.3883 2013.3883 2150)      //170
	(811.6117 2013.3883 2150)      //171
	(811.6117 736.6117 2150)      //172
	(988.3883 736.6117 2150)      //173
	(988.3883 913.3883 2150)      //174
	(811.6117 913.3883 2150)      //175
	(811.6117 2936.6117 2150)      //176
	(988.3883 2936.6117 2150)      //177
	(988.3883 3113.3883 2150)      //178
	(811.6117 3113.3883 2150)      //179
	(811.6117 1286.6117 2150)      //180
	(988.3883 1286.6117 2150)      //181
	(988.3883 1463.3883 2150)      //182
	(811.6117 1463.3883 2150)      //183
	(811.6117 2386.6117 2150)      //184
	(988.3883 2386.6117 2150)      //185
	(988.3883 2563.3883 2150)      //186
	(811.6117 2563.3883 2150)      //187
	(811.6117 2386.6117 2150)      //188
	(988.3883 2386.6117 2150)      //189
	(988.3883 2563.3883 2150)      //190
	(811.6117 2563.3883 2150)      //191

);

blocks
(
	hex (0 1 5 4 16 17 21 20) (5 5 1) simpleGrading (1 1 1)
	hex (1 2 6 5 17 18 22 21) (5 5 1) simpleGrading (1 1 1)
	hex (2 3 7 6 18 19 23 22) (5 5 1) simpleGrading (1 1 1)
	hex (4 5 9 8 20 21 25 24) (5 25 1) simpleGrading (1 1 1)
	hex (6 7 11 10 22 23 27 26) (5 25 1) simpleGrading (1 1 1)
	hex (8 9 13 12 24 25 29 28) (5 5 1) simpleGrading (1 1 1)
	hex (9 10 14 13 25 26 30 29) (5 5 1) simpleGrading (1 1 1)
	hex (10 11 15 14 26 27 31 30) (5 5 1) simpleGrading (1 1 1)

	hex (16 17 21 20 60 61 65 64) (5 5 10) simpleGrading (1 1 1)
	hex (17 18 22 21 61 62 66 65) (5 5 10) simpleGrading (1 1 1)
	hex (18 19 23 22 62 63 67 66) (5 5 10) simpleGrading (1 1 1)
	hex (20 21 25 24 64 65 69 68) (5 25 10) simpleGrading (1 1 1)
	hex (21 22 26 25 65 66 70 69) (5 5 10) simpleGrading (1 1 1)
	hex (22 23 27 26 66 67 71 70) (5 25 10) simpleGrading (1 1 1)
	hex (24 25 29 28 68 69 73 72) (5 5 10) simpleGrading (1 1 1)
	hex (25 26 30 29 69 70 74 73) (5 5 10) simpleGrading (1 1 1)
	hex (26 27 31 30 70 71 75 74) (5 5 10) simpleGrading (1 1 1)

	hex (60 61 65 64 124 125 129 128) (5 5 3) simpleGrading (1 1 1)
	hex (61 62 66 65 125 126 130 129) (5 5 3) simpleGrading (1 1 1)
	hex (62 63 67 66 126 127 131 130) (5 5 3) simpleGrading (1 1 1)
	hex (64 65 69 68 128 129 133 132) (5 25 3) simpleGrading (1 1 1)
	hex (65 66 70 69 129 130 134 133) (5 5 3) simpleGrading (1 1 1)
	hex (66 67 71 70 130 131 135 134) (5 25 3) simpleGrading (1 1 1)
	hex (68 69 73 72 132 133 137 136) (5 5 3) simpleGrading (1 1 1)
	hex (69 70 74 73 133 134 138 137) (5 5 3) simpleGrading (1 1 1)
	hex (70 71 75 74 134 135 139 138) (5 5 3) simpleGrading (1 1 1)

	hex (21 36 38 40 65 80 82 84) (5 5 10) simpleGrading (1 1 1)
	hex (22 37 36 21 66 81 80 65) (5 5 10) simpleGrading (1 1 1)
	hex (41 39 37 22 85 83 81 66) (5 5 10) simpleGrading (1 1 1)
	hex (40 38 39 41 84 82 83 85) (5 5 10) simpleGrading (1 1 1)
	hex (40 48 50 52 84 92 94 96) (5 5 10) simpleGrading (1 1 1)
	hex (41 49 48 40 85 93 92 84) (5 5 10) simpleGrading (1 1 1)
	hex (53 51 49 41 97 95 93 85) (5 5 10) simpleGrading (1 1 1)
	hex (52 50 51 53 96 94 95 97) (5 5 10) simpleGrading (1 1 1)
	hex (52 32 34 58 96 76 78 102) (5 5 10) simpleGrading (1 1 1)
	hex (53 33 32 52 97 77 76 96) (5 5 10) simpleGrading (1 1 1)
	hex (59 35 33 53 103 79 77 97) (5 5 10) simpleGrading (1 1 1)
	hex (58 34 35 59 102 78 79 103) (5 5 10) simpleGrading (1 1 1)
	hex (58 54 56 46 102 98 100 90) (5 5 10) simpleGrading (1 1 1)
	hex (59 55 54 58 103 99 98 102) (5 5 10) simpleGrading (1 1 1)
	hex (47 57 55 59 91 101 99 103) (5 5 10) simpleGrading (1 1 1)
	hex (46 56 57 47 90 100 101 91) (5 5 10) simpleGrading (1 1 1)
	hex (46 42 44 25 90 86 88 69) (5 5 10) simpleGrading (1 1 1)
	hex (47 43 42 46 91 87 86 90) (5 5 10) simpleGrading (1 1 1)
	hex (26 45 43 47 70 89 87 91) (5 5 10) simpleGrading (1 1 1)
	hex (25 44 45 26 69 88 89 70) (5 5 10) simpleGrading (1 1 1)

	hex (65 80 82 84 129 144 146 148) (5 5 3) simpleGrading (1 1 1)
	hex (66 81 80 65 130 145 144 129) (5 5 3) simpleGrading (1 1 1)
	hex (85 83 81 66 149 147 145 130) (5 5 3) simpleGrading (1 1 1)
	hex (84 82 83 85 148 146 147 149) (5 5 3) simpleGrading (1 1 1)
	hex (84 92 94 96 148 156 158 160) (5 5 3) simpleGrading (1 1 1)
	hex (85 93 92 84 149 157 156 148) (5 5 3) simpleGrading (1 1 1)
	hex (97 95 93 85 161 159 157 149) (5 5 3) simpleGrading (1 1 1)
	hex (96 94 95 97 160 158 159 161) (5 5 3) simpleGrading (1 1 1)
	hex (96 76 78 102 160 140 142 166) (5 5 3) simpleGrading (1 1 1)
	hex (97 77 76 96 161 141 140 160) (5 5 3) simpleGrading (1 1 1)
	hex (103 79 77 97 167 143 141 161) (5 5 3) simpleGrading (1 1 1)
	hex (102 78 79 103 166 142 143 167) (5 5 3) simpleGrading (1 1 1)
	hex (102 98 100 90 166 162 164 154) (5 5 3) simpleGrading (1 1 1)
	hex (103 99 98 102 167 163 162 166) (5 5 3) simpleGrading (1 1 1)
	hex (91 101 99 103 155 165 163 167) (5 5 3) simpleGrading (1 1 1)
	hex (90 100 101 91 154 164 165 155) (5 5 3) simpleGrading (1 1 1)
	hex (90 86 88 69 154 150 152 133) (5 5 3) simpleGrading (1 1 1)
	hex (91 87 86 90 155 151 150 154) (5 5 3) simpleGrading (1 1 1)
	hex (70 89 87 91 134 153 151 155) (5 5 3) simpleGrading (1 1 1)
	hex (69 88 89 70 133 152 153 134) (5 5 3) simpleGrading (1 1 1)

	hex (172 173 174 175 236 237 238 239) (5 5 3) simpleGrading (1 1 1)
	hex (80 172 175 82 144 236 239 146) (5 5 3) simpleGrading (1 1 1)
	hex (81 173 172 80 145 237 236 144) (5 5 3) simpleGrading (1 1 1)
	hex (83 174 173 81 147 238 237 145) (5 5 3) simpleGrading (1 1 1)
	hex (82 175 174 83 146 239 238 147) (5 5 3) simpleGrading (1 1 1)
	hex (180 181 182 183 244 245 246 247) (5 5 3) simpleGrading (1 1 1)
	hex (92 180 183 94 156 244 247 158) (5 5 3) simpleGrading (1 1 1)
	hex (93 181 180 92 157 245 244 156) (5 5 3) simpleGrading (1 1 1)
	hex (95 182 181 93 159 246 245 157) (5 5 3) simpleGrading (1 1 1)
	hex (94 183 182 95 158 247 246 159) (5 5 3) simpleGrading (1 1 1)
	hex (168 169 170 171 232 233 234 235) (5 5 3) simpleGrading (1 1 1)
	hex (76 168 171 78 140 232 235 142) (5 5 3) simpleGrading (1 1 1)
	hex (77 169 168 76 141 233 232 140) (5 5 3) simpleGrading (1 1 1)
	hex (79 170 169 77 143 234 233 141) (5 5 3) simpleGrading (1 1 1)
	hex (78 171 170 79 142 235 234 143) (5 5 3) simpleGrading (1 1 1)
	hex (188 189 190 191 252 253 254 255) (5 5 3) simpleGrading (1 1 1)
	hex (98 188 191 100 162 252 255 164) (5 5 3) simpleGrading (1 1 1)
	hex (99 189 188 98 163 253 252 162) (5 5 3) simpleGrading (1 1 1)
	hex (101 190 189 99 165 254 253 163) (5 5 3) simpleGrading (1 1 1)
	hex (100 191 190 101 164 255 254 165) (5 5 3) simpleGrading (1 1 1)
	hex (176 177 178 179 240 241 242 243) (5 5 3) simpleGrading (1 1 1)
	hex (86 176 179 88 150 240 243 152) (5 5 3) simpleGrading (1 1 1)
	hex (87 177 176 86 151 241 240 150) (5 5 3) simpleGrading (1 1 1)
	hex (89 178 177 87 153 242 241 151) (5 5 3) simpleGrading (1 1 1)
	hex (88 179 178 89 152 243 242 153) (5 5 3) simpleGrading (1 1 1)

);

edges
(
	arc 32 33 (900.0 1675.0 150)
	arc 33 35 (1150.0 1925.0 150)
	arc 35 34 (900.0 2175.0 150)
	arc 34 32 (650.0 1925.0 150)
	arc 36 37 (900.0 1675.0 150)
	arc 37 39 (1150.0 1925.0 150)
	arc 39 38 (900.0 2175.0 150)
	arc 38 36 (650.0 1925.0 150)
	arc 42 43 (900.0 1675.0 150)
	arc 43 45 (1150.0 1925.0 150)
	arc 45 44 (900.0 2175.0 150)
	arc 44 42 (650.0 1925.0 150)
	arc 48 49 (900.0 1675.0 150)
	arc 49 51 (1150.0 1925.0 150)
	arc 51 50 (900.0 2175.0 150)
	arc 50 48 (650.0 1925.0 150)
	arc 54 55 (900.0 1675.0 150)
	arc 55 57 (1150.0 1925.0 150)
	arc 57 56 (900.0 2175.0 150)
	arc 56 54 (650.0 1925.0 150)

	arc 76 77 (900.0 1675.0 1650)
	arc 77 79 (1150.0 1925.0 1650)
	arc 79 78 (900.0 2175.0 1650)
	arc 78 76 (650.0 1925.0 1650)
	arc 80 81 (900.0 1675.0 1650)
	arc 81 83 (1150.0 1925.0 1650)
	arc 83 82 (900.0 2175.0 1650)
	arc 82 80 (650.0 1925.0 1650)
	arc 86 87 (900.0 1675.0 1650)
	arc 87 89 (1150.0 1925.0 1650)
	arc 89 88 (900.0 2175.0 1650)
	arc 88 86 (650.0 1925.0 1650)
	arc 92 93 (900.0 1675.0 1650)
	arc 93 95 (1150.0 1925.0 1650)
	arc 95 94 (900.0 2175.0 1650)
	arc 94 92 (650.0 1925.0 1650)
	arc 98 99 (900.0 1675.0 1650)
	arc 99 101 (1150.0 1925.0 1650)
	arc 101 100 (900.0 2175.0 1650)
	arc 100 98 (650.0 1925.0 1650)

	arc 140 141 (900.0 1675.0 2150.0)
	arc 141 143 (1150.0 1925.0 2150.0)
	arc 143 142 (900.0 2175.0 2150.0)
	arc 142 140 (650.0 1925.0 2150.0)
	arc 144 145 (900.0 1675.0 2150.0)
	arc 145 147 (1150.0 1925.0 2150.0)
	arc 147 146 (900.0 2175.0 2150.0)
	arc 146 144 (650.0 1925.0 2150.0)
	arc 150 151 (900.0 1675.0 2150.0)
	arc 151 153 (1150.0 1925.0 2150.0)
	arc 153 152 (900.0 2175.0 2150.0)
	arc 152 150 (650.0 1925.0 2150.0)
	arc 156 157 (900.0 1675.0 2150.0)
	arc 157 159 (1150.0 1925.0 2150.0)
	arc 159 158 (900.0 2175.0 2150.0)
	arc 158 156 (650.0 1925.0 2150.0)
	arc 162 163 (900.0 1675.0 2150.0)
	arc 163 165 (1150.0 1925.0 2150.0)
	arc 165 164 (900.0 2175.0 2150.0)
	arc 164 162 (650.0 1925.0 2150.0)
);

patches
(
	patch bottom
	(
		(4 5 1 0)
		(5 6 2 1)
		(6 7 3 2)
		(8 9 5 4)
		(10 11 7 6)
		(12 13 9 8)
		(13 14 10 9)
		(14 15 11 10)
	)

	patch top
	(
		(124 125 129 128)
		(125 126 130 129)
		(126 127 131 130)
		(128 129 133 132)
		(130 131 135 134)
		(132 133 137 136)
		(133 134 138 137)
		(134 135 139 138)
		(236 237 238 239)
		(144 236 239 146)
		(145 237 236 144)
		(147 238 237 145)
		(146 239 238 147)
		(244 245 246 247)
		(156 244 247 158)
		(157 245 244 156)
		(159 246 245 157)
		(158 247 246 159)
		(232 233 234 235)
		(140 232 235 142)
		(141 233 232 140)
		(143 234 233 141)
		(142 235 234 143)
		(252 253 254 255)
		(162 252 255 164)
		(163 253 252 162)
		(165 254 253 163)
		(164 255 254 165)
		(240 241 242 243)
		(150 240 243 152)
		(151 241 240 150)
		(153 242 241 151)
		(152 243 242 153)
	)

	patch inlet
	(
		(16 20 4 0)
		(24 28 12 8)
		(20 24 8 4)
		(60 64 20 16)
		(68 72 28 24)
		(64 68 24 20)
		(128 132 68 64)
		(132 136 72 68)
		(124 128 64 60)
	)

	patch outlet
	(
		(11 15 31 27)
		(3 7 23 19)
		(7 11 27 23)
		(27 31 75 71)
		(19 23 67 63)
		(23 27 71 67)
		(67 71 135 131)
		(63 67 131 127)
		(71 75 139 135)
	)

	patch bristle
	(
		(5 9 25 21)
		(6 5 21 22)
		(10 26 25 9)
		(6 22 26 10)
		(40 38 36 21)
		(21 36 37 22)
		(22 37 39 41)
		(41 39 38 40)
		(52 50 48 40)
		(40 48 49 41)
		(41 49 51 53)
		(53 51 50 52)
		(58 34 32 52)
		(52 32 33 53)
		(53 33 35 59)
		(59 35 34 58)
		(46 56 54 58)
		(58 54 55 59)
		(59 55 57 47)
		(47 57 56 46)
		(25 44 42 46)
		(46 42 43 47)
		(47 43 45 26)
		(26 45 44 25)
		(111 110 109 108)
		(38 111 108 36)
		(36 108 109 37)
		(37 109 110 39)
		(39 110 111 38)
		(38 82 80 36)
		(36 80 81 37)
		(37 81 83 39)
		(39 83 82 38)
		(119 118 117 116)
		(50 119 116 48)
		(48 116 117 49)
		(49 117 118 51)
		(51 118 119 50)
		(50 94 92 48)
		(48 92 93 49)
		(49 93 95 51)
		(51 95 94 50)
		(107 106 105 104)
		(34 107 104 32)
		(32 104 105 33)
		(33 105 106 35)
		(35 106 107 34)
		(34 78 76 32)
		(32 76 77 33)
		(33 77 79 35)
		(35 79 78 34)
		(123 122 121 120)
		(56 123 120 54)
		(54 120 121 55)
		(55 121 122 57)
		(57 122 123 56)
		(56 100 98 54)
		(54 98 99 55)
		(55 99 101 57)
		(57 101 100 56)
		(115 114 113 112)
		(44 115 112 42)
		(42 112 113 43)
		(43 113 114 45)
		(45 114 115 44)
		(44 88 86 42)
		(42 86 87 43)
		(43 87 89 45)
		(45 89 88 44)
	)

	patch frontAndBackPlanes
	(
		(0 1 17 16)
		(1 2 18 17)
		(2 3 19 18)
		(16 17 61 60)
		(17 18 62 61)
		(18 19 63 62)
		(60 61 125 124)
		(61 62 126 125)
		(62 63 127 126)
		(12 28 29 13)
		(13 29 30 14)
		(14 30 31 15)
		(28 72 73 29)
		(29 73 74 30)
		(30 74 75 31)
		(72 136 137 73)
		(73 137 138 74)
		(74 138 139 75)
	)
);

mergePatchPairs
(
);


// ************************************************************************* //

