/*--------------------------------*- C++ -*----------------------------------*\
| =========                 |                                                 |
| \      /  F ield         | foam-extend: Open Source CFD                    |
|  \    /   O peration     | Version:     4.0                                |
|   \  /    A nd           | Web:         http://www.foam-extend.org         |
|    \/     M anipulation  |                                                 |
\*---------------------------------------------------------------------------*/
FoamFile
{
    version     2.0;
    format      ascii;
    class       dictionary;
    object      blockMeshDict;
}
// * * * * * * * * * * * * * * * * * * * * * * * * * * * * * * * * * * * * * //

convertToMeters 1e-6;
vertices
(
	(0 0 0)      //0
	(49.5 0 0)      //1
	(55.5 0 0)      //2
	(145 0 0)      //3
	(0 33 0)      //4
	(49.5 33 0)      //5
	(55.5 33 0)      //6
	(145 33 0)      //7
	(0 36 0)      //8
	(49.5 36 0)      //9
	(55.5 36 0)      //10
	(145 36 0)      //11
	(0 42 0)      //12
	(49.5 42 0)      //13
	(55.5 42 0)      //14
	(145 42 0)      //15
	(0 45 0)      //16
	(49.5 45 0)      //17
	(55.5 45 0)      //18
	(145 45 0)      //19
	(0 48 0)      //20
	(49.5 48 0)      //21
	(55.5 48 0)      //22
	(145 48 0)      //23
	(0 54 0)      //24
	(49.5 54 0)      //25
	(55.5 54 0)      //26
	(145 54 0)      //27
	(0 57 0)      //28
	(49.5 57 0)      //29
	(55.5 57 0)      //30
	(145 57 0)      //31
	(0 60 0)      //32
	(49.5 60 0)      //33
	(55.5 60 0)      //34
	(145 60 0)      //35
	(0 66 0)      //36
	(49.5 66 0)      //37
	(55.5 66 0)      //38
	(145 66 0)      //39
	(0 69 0)      //40
	(49.5 69 0)      //41
	(55.5 69 0)      //42
	(145 69 0)      //43
	(0 72 0)      //44
	(49.5 72 0)      //45
	(55.5 72 0)      //46
	(145 72 0)      //47
	(0 78 0)      //48
	(49.5 78 0)      //49
	(55.5 78 0)      //50
	(145 78 0)      //51
	(0 81 0)      //52
	(49.5 81 0)      //53
	(55.5 81 0)      //54
	(145 81 0)      //55
	(0 84 0)      //56
	(49.5 84 0)      //57
	(55.5 84 0)      //58
	(145 84 0)      //59
	(0 90 0)      //60
	(49.5 90 0)      //61
	(55.5 90 0)      //62
	(145 90 0)      //63
	(0 93 0)      //64
	(49.5 93 0)      //65
	(55.5 93 0)      //66
	(145 93 0)      //67
	(0 96 0)      //68
	(49.5 96 0)      //69
	(55.5 96 0)      //70
	(145 96 0)      //71
	(0 102 0)      //72
	(49.5 102 0)      //73
	(55.5 102 0)      //74
	(145 102 0)      //75
	(0 105 0)      //76
	(49.5 105 0)      //77
	(55.5 105 0)      //78
	(145 105 0)      //79
	(0 108 0)      //80
	(49.5 108 0)      //81
	(55.5 108 0)      //82
	(145 108 0)      //83
	(0 114 0)      //84
	(49.5 114 0)      //85
	(55.5 114 0)      //86
	(145 114 0)      //87
	(0 117 0)      //88
	(49.5 117 0)      //89
	(55.5 117 0)      //90
	(145 117 0)      //91
	(0 150 0)      //92
	(49.5 150 0)      //93
	(55.5 150 0)      //94
	(145 150 0)      //95
	(0 0 4)      //96
	(49.5 0 4)      //97
	(55.5 0 4)      //98
	(145 0 4)      //99
	(0 33 4)      //100
	(49.5 33 4)      //101
	(55.5 33 4)      //102
	(145 33 4)      //103
	(0 36 4)      //104
	(49.5 36 4)      //105
	(55.5 36 4)      //106
	(145 36 4)      //107
	(51.0858 37.5858 4)      //108
	(53.9142 37.5858 4)      //109
	(51.7929 38.2929 4)      //110
	(53.2071 38.2929 4)      //111
	(51.7929 39.7071 4)      //112
	(53.2071 39.7071 4)      //113
	(51.0858 40.4142 4)      //114
	(53.9142 40.4142 4)      //115
	(0 42 4)      //116
	(49.5 42 4)      //117
	(55.5 42 4)      //118
	(145 42 4)      //119
	(0 45 4)      //120
	(49.5 45 4)      //121
	(55.5 45 4)      //122
	(145 45 4)      //123
	(0 48 4)      //124
	(49.5 48 4)      //125
	(55.5 48 4)      //126
	(145 48 4)      //127
	(51.0858 49.5858 4)      //128
	(53.9142 49.5858 4)      //129
	(51.7929 50.2929 4)      //130
	(53.2071 50.2929 4)      //131
	(51.7929 51.7071 4)      //132
	(53.2071 51.7071 4)      //133
	(51.0858 52.4142 4)      //134
	(53.9142 52.4142 4)      //135
	(0 54 4)      //136
	(49.5 54 4)      //137
	(55.5 54 4)      //138
	(145 54 4)      //139
	(0 57 4)      //140
	(49.5 57 4)      //141
	(55.5 57 4)      //142
	(145 57 4)      //143
	(0 60 4)      //144
	(49.5 60 4)      //145
	(55.5 60 4)      //146
	(145 60 4)      //147
	(51.0858 61.5858 4)      //148
	(53.9142 61.5858 4)      //149
	(51.7929 62.2929 4)      //150
	(53.2071 62.2929 4)      //151
	(51.7929 63.7071 4)      //152
	(53.2071 63.7071 4)      //153
	(51.0858 64.4142 4)      //154
	(53.9142 64.4142 4)      //155
	(0 66 4)      //156
	(49.5 66 4)      //157
	(55.5 66 4)      //158
	(145 66 4)      //159
	(0 69 4)      //160
	(49.5 69 4)      //161
	(55.5 69 4)      //162
	(145 69 4)      //163
	(0 72 4)      //164
	(49.5 72 4)      //165
	(55.5 72 4)      //166
	(145 72 4)      //167
	(51.0858 73.5858 4)      //168
	(53.9142 73.5858 4)      //169
	(51.7929 74.2929 4)      //170
	(53.2071 74.2929 4)      //171
	(51.7929 75.7071 4)      //172
	(53.2071 75.7071 4)      //173
	(51.0858 76.4142 4)      //174
	(53.9142 76.4142 4)      //175
	(0 78 4)      //176
	(49.5 78 4)      //177
	(55.5 78 4)      //178
	(145 78 4)      //179
	(0 81 4)      //180
	(49.5 81 4)      //181
	(55.5 81 4)      //182
	(145 81 4)      //183
	(0 84 4)      //184
	(49.5 84 4)      //185
	(55.5 84 4)      //186
	(145 84 4)      //187
	(51.0858 85.5858 4)      //188
	(53.9142 85.5858 4)      //189
	(51.7929 86.2929 4)      //190
	(53.2071 86.2929 4)      //191
	(51.7929 87.7071 4)      //192
	(53.2071 87.7071 4)      //193
	(51.0858 88.4142 4)      //194
	(53.9142 88.4142 4)      //195
	(0 90 4)      //196
	(49.5 90 4)      //197
	(55.5 90 4)      //198
	(145 90 4)      //199
	(0 93 4)      //200
	(49.5 93 4)      //201
	(55.5 93 4)      //202
	(145 93 4)      //203
	(0 96 4)      //204
	(49.5 96 4)      //205
	(55.5 96 4)      //206
	(145 96 4)      //207
	(51.0858 97.5858 4)      //208
	(53.9142 97.5858 4)      //209
	(51.7929 98.2929 4)      //210
	(53.2071 98.2929 4)      //211
	(51.7929 99.7071 4)      //212
	(53.2071 99.7071 4)      //213
	(51.0858 100.4142 4)      //214
	(53.9142 100.4142 4)      //215
	(0 102 4)      //216
	(49.5 102 4)      //217
	(55.5 102 4)      //218
	(145 102 4)      //219
	(0 105 4)      //220
	(49.5 105 4)      //221
	(55.5 105 4)      //222
	(145 105 4)      //223
	(0 108 4)      //224
	(49.5 108 4)      //225
	(55.5 108 4)      //226
	(145 108 4)      //227
	(51.0858 109.5858 4)      //228
	(53.9142 109.5858 4)      //229
	(51.7929 110.2929 4)      //230
	(53.2071 110.2929 4)      //231
	(51.7929 111.7071 4)      //232
	(53.2071 111.7071 4)      //233
	(51.0858 112.4142 4)      //234
	(53.9142 112.4142 4)      //235
	(0 114 4)      //236
	(49.5 114 4)      //237
	(55.5 114 4)      //238
	(145 114 4)      //239
	(0 117 4)      //240
	(49.5 117 4)      //241
	(55.5 117 4)      //242
	(145 117 4)      //243
	(0 150 4)      //244
	(49.5 150 4)      //245
	(55.5 150 4)      //246
	(145 150 4)      //247
	(0 0 144)      //248
	(49.5 0 144)      //249
	(55.5 0 144)      //250
	(145 0 144)      //251
	(0 33 144)      //252
	(49.5 33 144)      //253
	(55.5 33 144)      //254
	(145 33 144)      //255
	(0 36 144)      //256
	(49.5 36 144)      //257
	(55.5 36 144)      //258
	(145 36 144)      //259
	(51.0858 37.5858 144)      //260
	(53.9142 37.5858 144)      //261
	(51.7929 38.2929 144)      //262
	(53.2071 38.2929 144)      //263
	(52.1464 38.6464 144)      //264
	(52.8536 38.6464 144)      //265
	(52.1464 39.3536 144)      //266
	(52.8536 39.3536 144)      //267
	(51.7929 39.7071 144)      //268
	(53.2071 39.7071 144)      //269
	(51.0858 40.4142 144)      //270
	(53.9142 40.4142 144)      //271
	(0 42 144)      //272
	(49.5 42 144)      //273
	(55.5 42 144)      //274
	(145 42 144)      //275
	(0 45 144)      //276
	(49.5 45 144)      //277
	(55.5 45 144)      //278
	(145 45 144)      //279
	(0 48 144)      //280
	(49.5 48 144)      //281
	(55.5 48 144)      //282
	(145 48 144)      //283
	(51.0858 49.5858 144)      //284
	(53.9142 49.5858 144)      //285
	(51.7929 50.2929 144)      //286
	(53.2071 50.2929 144)      //287
	(52.1464 50.6464 144)      //288
	(52.8536 50.6464 144)      //289
	(52.1464 51.3536 144)      //290
	(52.8536 51.3536 144)      //291
	(51.7929 51.7071 144)      //292
	(53.2071 51.7071 144)      //293
	(51.0858 52.4142 144)      //294
	(53.9142 52.4142 144)      //295
	(0 54 144)      //296
	(49.5 54 144)      //297
	(55.5 54 144)      //298
	(145 54 144)      //299
	(0 57 144)      //300
	(49.5 57 144)      //301
	(55.5 57 144)      //302
	(145 57 144)      //303
	(0 60 144)      //304
	(49.5 60 144)      //305
	(55.5 60 144)      //306
	(145 60 144)      //307
	(51.0858 61.5858 144)      //308
	(53.9142 61.5858 144)      //309
	(51.7929 62.2929 144)      //310
	(53.2071 62.2929 144)      //311
	(52.1464 62.6464 144)      //312
	(52.8536 62.6464 144)      //313
	(52.1464 63.3536 144)      //314
	(52.8536 63.3536 144)      //315
	(51.7929 63.7071 144)      //316
	(53.2071 63.7071 144)      //317
	(51.0858 64.4142 144)      //318
	(53.9142 64.4142 144)      //319
	(0 66 144)      //320
	(49.5 66 144)      //321
	(55.5 66 144)      //322
	(145 66 144)      //323
	(0 69 144)      //324
	(49.5 69 144)      //325
	(55.5 69 144)      //326
	(145 69 144)      //327
	(0 72 144)      //328
	(49.5 72 144)      //329
	(55.5 72 144)      //330
	(145 72 144)      //331
	(51.0858 73.5858 144)      //332
	(53.9142 73.5858 144)      //333
	(51.7929 74.2929 144)      //334
	(53.2071 74.2929 144)      //335
	(52.1464 74.6464 144)      //336
	(52.8536 74.6464 144)      //337
	(52.1464 75.3536 144)      //338
	(52.8536 75.3536 144)      //339
	(51.7929 75.7071 144)      //340
	(53.2071 75.7071 144)      //341
	(51.0858 76.4142 144)      //342
	(53.9142 76.4142 144)      //343
	(0 78 144)      //344
	(49.5 78 144)      //345
	(55.5 78 144)      //346
	(145 78 144)      //347
	(0 81 144)      //348
	(49.5 81 144)      //349
	(55.5 81 144)      //350
	(145 81 144)      //351
	(0 84 144)      //352
	(49.5 84 144)      //353
	(55.5 84 144)      //354
	(145 84 144)      //355
	(51.0858 85.5858 144)      //356
	(53.9142 85.5858 144)      //357
	(51.7929 86.2929 144)      //358
	(53.2071 86.2929 144)      //359
	(52.1464 86.6464 144)      //360
	(52.8536 86.6464 144)      //361
	(52.1464 87.3536 144)      //362
	(52.8536 87.3536 144)      //363
	(51.7929 87.7071 144)      //364
	(53.2071 87.7071 144)      //365
	(51.0858 88.4142 144)      //366
	(53.9142 88.4142 144)      //367
	(0 90 144)      //368
	(49.5 90 144)      //369
	(55.5 90 144)      //370
	(145 90 144)      //371
	(0 93 144)      //372
	(49.5 93 144)      //373
	(55.5 93 144)      //374
	(145 93 144)      //375
	(0 96 144)      //376
	(49.5 96 144)      //377
	(55.5 96 144)      //378
	(145 96 144)      //379
	(51.0858 97.5858 144)      //380
	(53.9142 97.5858 144)      //381
	(51.7929 98.2929 144)      //382
	(53.2071 98.2929 144)      //383
	(52.1464 98.6464 144)      //384
	(52.8536 98.6464 144)      //385
	(52.1464 99.3536 144)      //386
	(52.8536 99.3536 144)      //387
	(51.7929 99.7071 144)      //388
	(53.2071 99.7071 144)      //389
	(51.0858 100.4142 144)      //390
	(53.9142 100.4142 144)      //391
	(0 102 144)      //392
	(49.5 102 144)      //393
	(55.5 102 144)      //394
	(145 102 144)      //395
	(0 105 144)      //396
	(49.5 105 144)      //397
	(55.5 105 144)      //398
	(145 105 144)      //399
	(0 108 144)      //400
	(49.5 108 144)      //401
	(55.5 108 144)      //402
	(145 108 144)      //403
	(51.0858 109.5858 144)      //404
	(53.9142 109.5858 144)      //405
	(51.7929 110.2929 144)      //406
	(53.2071 110.2929 144)      //407
	(52.1464 110.6464 144)      //408
	(52.8536 110.6464 144)      //409
	(52.1464 111.3536 144)      //410
	(52.8536 111.3536 144)      //411
	(51.7929 111.7071 144)      //412
	(53.2071 111.7071 144)      //413
	(51.0858 112.4142 144)      //414
	(53.9142 112.4142 144)      //415
	(0 114 144)      //416
	(49.5 114 144)      //417
	(55.5 114 144)      //418
	(145 114 144)      //419
	(0 117 144)      //420
	(49.5 117 144)      //421
	(55.5 117 144)      //422
	(145 117 144)      //423
	(0 150 144)      //424
	(49.5 150 144)      //425
	(55.5 150 144)      //426
	(145 150 144)      //427
	(0 0 214)      //428
	(49.5 0 214)      //429
	(55.5 0 214)      //430
	(145 0 214)      //431
	(0 33 214)      //432
	(49.5 33 214)      //433
	(55.5 33 214)      //434
	(145 33 214)      //435
	(0 36 214)      //436
	(49.5 36 214)      //437
	(55.5 36 214)      //438
	(145 36 214)      //439
	(51.0858 37.5858 214)      //440
	(53.9142 37.5858 214)      //441
	(51.7929 38.2929 214)      //442
	(53.2071 38.2929 214)      //443
	(52.1464 38.6464 214)      //444
	(52.8536 38.6464 214)      //445
	(52.1464 39.3536 214)      //446
	(52.8536 39.3536 214)      //447
	(51.7929 39.7071 214)      //448
	(53.2071 39.7071 214)      //449
	(51.0858 40.4142 214)      //450
	(53.9142 40.4142 214)      //451
	(0 42 214)      //452
	(49.5 42 214)      //453
	(55.5 42 214)      //454
	(145 42 214)      //455
	(0 45 214)      //456
	(49.5 45 214)      //457
	(55.5 45 214)      //458
	(145 45 214)      //459
	(0 48 214)      //460
	(49.5 48 214)      //461
	(55.5 48 214)      //462
	(145 48 214)      //463
	(51.0858 49.5858 214)      //464
	(53.9142 49.5858 214)      //465
	(51.7929 50.2929 214)      //466
	(53.2071 50.2929 214)      //467
	(52.1464 50.6464 214)      //468
	(52.8536 50.6464 214)      //469
	(52.1464 51.3536 214)      //470
	(52.8536 51.3536 214)      //471
	(51.7929 51.7071 214)      //472
	(53.2071 51.7071 214)      //473
	(51.0858 52.4142 214)      //474
	(53.9142 52.4142 214)      //475
	(0 54 214)      //476
	(49.5 54 214)      //477
	(55.5 54 214)      //478
	(145 54 214)      //479
	(0 57 214)      //480
	(49.5 57 214)      //481
	(55.5 57 214)      //482
	(145 57 214)      //483
	(0 60 214)      //484
	(49.5 60 214)      //485
	(55.5 60 214)      //486
	(145 60 214)      //487
	(51.0858 61.5858 214)      //488
	(53.9142 61.5858 214)      //489
	(51.7929 62.2929 214)      //490
	(53.2071 62.2929 214)      //491
	(52.1464 62.6464 214)      //492
	(52.8536 62.6464 214)      //493
	(52.1464 63.3536 214)      //494
	(52.8536 63.3536 214)      //495
	(51.7929 63.7071 214)      //496
	(53.2071 63.7071 214)      //497
	(51.0858 64.4142 214)      //498
	(53.9142 64.4142 214)      //499
	(0 66 214)      //500
	(49.5 66 214)      //501
	(55.5 66 214)      //502
	(145 66 214)      //503
	(0 69 214)      //504
	(49.5 69 214)      //505
	(55.5 69 214)      //506
	(145 69 214)      //507
	(0 72 214)      //508
	(49.5 72 214)      //509
	(55.5 72 214)      //510
	(145 72 214)      //511
	(51.0858 73.5858 214)      //512
	(53.9142 73.5858 214)      //513
	(51.7929 74.2929 214)      //514
	(53.2071 74.2929 214)      //515
	(52.1464 74.6464 214)      //516
	(52.8536 74.6464 214)      //517
	(52.1464 75.3536 214)      //518
	(52.8536 75.3536 214)      //519
	(51.7929 75.7071 214)      //520
	(53.2071 75.7071 214)      //521
	(51.0858 76.4142 214)      //522
	(53.9142 76.4142 214)      //523
	(0 78 214)      //524
	(49.5 78 214)      //525
	(55.5 78 214)      //526
	(145 78 214)      //527
	(0 81 214)      //528
	(49.5 81 214)      //529
	(55.5 81 214)      //530
	(145 81 214)      //531
	(0 84 214)      //532
	(49.5 84 214)      //533
	(55.5 84 214)      //534
	(145 84 214)      //535
	(51.0858 85.5858 214)      //536
	(53.9142 85.5858 214)      //537
	(51.7929 86.2929 214)      //538
	(53.2071 86.2929 214)      //539
	(52.1464 86.6464 214)      //540
	(52.8536 86.6464 214)      //541
	(52.1464 87.3536 214)      //542
	(52.8536 87.3536 214)      //543
	(51.7929 87.7071 214)      //544
	(53.2071 87.7071 214)      //545
	(51.0858 88.4142 214)      //546
	(53.9142 88.4142 214)      //547
	(0 90 214)      //548
	(49.5 90 214)      //549
	(55.5 90 214)      //550
	(145 90 214)      //551
	(0 93 214)      //552
	(49.5 93 214)      //553
	(55.5 93 214)      //554
	(145 93 214)      //555
	(0 96 214)      //556
	(49.5 96 214)      //557
	(55.5 96 214)      //558
	(145 96 214)      //559
	(51.0858 97.5858 214)      //560
	(53.9142 97.5858 214)      //561
	(51.7929 98.2929 214)      //562
	(53.2071 98.2929 214)      //563
	(52.1464 98.6464 214)      //564
	(52.8536 98.6464 214)      //565
	(52.1464 99.3536 214)      //566
	(52.8536 99.3536 214)      //567
	(51.7929 99.7071 214)      //568
	(53.2071 99.7071 214)      //569
	(51.0858 100.4142 214)      //570
	(53.9142 100.4142 214)      //571
	(0 102 214)      //572
	(49.5 102 214)      //573
	(55.5 102 214)      //574
	(145 102 214)      //575
	(0 105 214)      //576
	(49.5 105 214)      //577
	(55.5 105 214)      //578
	(145 105 214)      //579
	(0 108 214)      //580
	(49.5 108 214)      //581
	(55.5 108 214)      //582
	(145 108 214)      //583
	(51.0858 109.5858 214)      //584
	(53.9142 109.5858 214)      //585
	(51.7929 110.2929 214)      //586
	(53.2071 110.2929 214)      //587
	(52.1464 110.6464 214)      //588
	(52.8536 110.6464 214)      //589
	(52.1464 111.3536 214)      //590
	(52.8536 111.3536 214)      //591
	(51.7929 111.7071 214)      //592
	(53.2071 111.7071 214)      //593
	(51.0858 112.4142 214)      //594
	(53.9142 112.4142 214)      //595
	(0 114 214)      //596
	(49.5 114 214)      //597
	(55.5 114 214)      //598
	(145 114 214)      //599
	(0 117 214)      //600
	(49.5 117 214)      //601
	(55.5 117 214)      //602
	(145 117 214)      //603
	(0 150 214)      //604
	(49.5 150 214)      //605
	(55.5 150 214)      //606
	(145 150 214)      //607

);

blocks
(
	hex (0 1 5 4 96 97 101 100) (10 15 5) simpleGrading (0.5 0.5 1)
	hex (4 5 9 8 100 101 105 104) (10 3 5) simpleGrading (0.5 1 1)
	hex (8 9 13 12 104 105 117 116) (10 3 5) simpleGrading (0.5 1 1)
	hex (12 13 17 16 116 117 121 120) (10 3 5) simpleGrading (0.5 1 1)
	hex (16 17 21 20 120 121 125 124) (10 3 5) simpleGrading (0.5 1 1)
	hex (20 21 25 24 124 125 137 136) (10 3 5) simpleGrading (0.5 1 1)
	hex (24 25 29 28 136 137 141 140) (10 3 5) simpleGrading (0.5 1 1)
	hex (28 29 33 32 140 141 145 144) (10 3 5) simpleGrading (0.5 1 1)
	hex (32 33 37 36 144 145 157 156) (10 3 5) simpleGrading (0.5 1 1)
	hex (36 37 41 40 156 157 161 160) (10 3 5) simpleGrading (0.5 1 1)
	hex (40 41 45 44 160 161 165 164) (10 3 5) simpleGrading (0.5 1 1)
	hex (44 45 49 48 164 165 177 176) (10 3 5) simpleGrading (0.5 1 1)
	hex (48 49 53 52 176 177 181 180) (10 3 5) simpleGrading (0.5 1 1)
	hex (52 53 57 56 180 181 185 184) (10 3 5) simpleGrading (0.5 1 1)
	hex (56 57 61 60 184 185 197 196) (10 3 5) simpleGrading (0.5 1 1)
	hex (60 61 65 64 196 197 201 200) (10 3 5) simpleGrading (0.5 1 1)
	hex (64 65 69 68 200 201 205 204) (10 3 5) simpleGrading (0.5 1 1)
	hex (68 69 73 72 204 205 217 216) (10 3 5) simpleGrading (0.5 1 1)
	hex (72 73 77 76 216 217 221 220) (10 3 5) simpleGrading (0.5 1 1)
	hex (76 77 81 80 220 221 225 224) (10 3 5) simpleGrading (0.5 1 1)
	hex (80 81 85 84 224 225 237 236) (10 3 5) simpleGrading (0.5 1 1)
	hex (84 85 89 88 236 237 241 240) (10 3 5) simpleGrading (0.5 1 1)
	hex (88 89 93 92 240 241 245 244) (10 15 5) simpleGrading (0.5 2 1)

	hex (2 3 7 6 98 99 103 102) (20 15 5) simpleGrading (2 0.5 1)
	hex (6 7 11 10 102 103 107 106) (20 3 5) simpleGrading (2 1 1)
	hex (10 11 15 14 106 107 119 118) (20 3 5) simpleGrading (2 1 1)
	hex (14 15 19 18 118 119 123 122) (20 3 5) simpleGrading (2 1 1)
	hex (18 19 23 22 122 123 127 126) (20 3 5) simpleGrading (2 1 1)
	hex (22 23 27 26 126 127 139 138) (20 3 5) simpleGrading (2 1 1)
	hex (26 27 31 30 138 139 143 142) (20 3 5) simpleGrading (2 1 1)
	hex (30 31 35 34 142 143 147 146) (20 3 5) simpleGrading (2 1 1)
	hex (34 35 39 38 146 147 159 158) (20 3 5) simpleGrading (2 1 1)
	hex (38 39 43 42 158 159 163 162) (20 3 5) simpleGrading (2 1 1)
	hex (42 43 47 46 162 163 167 166) (20 3 5) simpleGrading (2 1 1)
	hex (46 47 51 50 166 167 179 178) (20 3 5) simpleGrading (2 1 1)
	hex (50 51 55 54 178 179 183 182) (20 3 5) simpleGrading (2 1 1)
	hex (54 55 59 58 182 183 187 186) (20 3 5) simpleGrading (2 1 1)
	hex (58 59 63 62 186 187 199 198) (20 3 5) simpleGrading (2 1 1)
	hex (62 63 67 66 198 199 203 202) (20 3 5) simpleGrading (2 1 1)
	hex (66 67 71 70 202 203 207 206) (20 3 5) simpleGrading (2 1 1)
	hex (70 71 75 74 206 207 219 218) (20 3 5) simpleGrading (2 1 1)
	hex (74 75 79 78 218 219 223 222) (20 3 5) simpleGrading (2 1 1)
	hex (78 79 83 82 222 223 227 226) (20 3 5) simpleGrading (2 1 1)
	hex (82 83 87 86 226 227 239 238) (20 3 5) simpleGrading (2 1 1)
	hex (86 87 91 90 238 239 243 242) (20 3 5) simpleGrading (2 1 1)
	hex (90 91 95 94 242 243 247 246) (20 15 5) simpleGrading (2 2 1)

	hex (1 2 6 5 97 98 102 101) (3 15 5) simpleGrading (1 0.5 1)
	hex (89 90 94 93 241 242 246 245) (3 15 5) simpleGrading (1 2 1)

	hex (96 97 101 100 248 249 253 252) (10 15 80) simpleGrading (0.5 0.5 1)
	hex (100 101 105 104 252 253 257 256) (10 3 80) simpleGrading (0.5 1 1)
	hex (104 105 117 116 256 257 273 272) (10 3 80) simpleGrading (0.5 1 1)
	hex (116 117 121 120 272 273 277 276) (10 3 80) simpleGrading (0.5 1 1)
	hex (120 121 125 124 276 277 281 280) (10 3 80) simpleGrading (0.5 1 1)
	hex (124 125 137 136 280 281 297 296) (10 3 80) simpleGrading (0.5 1 1)
	hex (136 137 141 140 296 297 301 300) (10 3 80) simpleGrading (0.5 1 1)
	hex (140 141 145 144 300 301 305 304) (10 3 80) simpleGrading (0.5 1 1)
	hex (144 145 157 156 304 305 321 320) (10 3 80) simpleGrading (0.5 1 1)
	hex (156 157 161 160 320 321 325 324) (10 3 80) simpleGrading (0.5 1 1)
	hex (160 161 165 164 324 325 329 328) (10 3 80) simpleGrading (0.5 1 1)
	hex (164 165 177 176 328 329 345 344) (10 3 80) simpleGrading (0.5 1 1)
	hex (176 177 181 180 344 345 349 348) (10 3 80) simpleGrading (0.5 1 1)
	hex (180 181 185 184 348 349 353 352) (10 3 80) simpleGrading (0.5 1 1)
	hex (184 185 197 196 352 353 369 368) (10 3 80) simpleGrading (0.5 1 1)
	hex (196 197 201 200 368 369 373 372) (10 3 80) simpleGrading (0.5 1 1)
	hex (200 201 205 204 372 373 377 376) (10 3 80) simpleGrading (0.5 1 1)
	hex (204 205 217 216 376 377 393 392) (10 3 80) simpleGrading (0.5 1 1)
	hex (216 217 221 220 392 393 397 396) (10 3 80) simpleGrading (0.5 1 1)
	hex (220 221 225 224 396 397 401 400) (10 3 80) simpleGrading (0.5 1 1)
	hex (224 225 237 236 400 401 417 416) (10 3 80) simpleGrading (0.5 1 1)
	hex (236 237 241 240 416 417 421 420) (10 3 80) simpleGrading (0.5 1 1)
	hex (240 241 245 244 420 421 425 424) (10 15 80) simpleGrading (0.5 2 1)

	hex (98 99 103 102 250 251 255 254) (20 15 80) simpleGrading (2 0.5 1)
	hex (102 103 107 106 254 255 259 258) (20 3 80) simpleGrading (2 1 1)
	hex (106 107 119 118 258 259 275 274) (20 3 80) simpleGrading (2 1 1)
	hex (118 119 123 122 274 275 279 278) (20 3 80) simpleGrading (2 1 1)
	hex (122 123 127 126 278 279 283 282) (20 3 80) simpleGrading (2 1 1)
	hex (126 127 139 138 282 283 299 298) (20 3 80) simpleGrading (2 1 1)
	hex (138 139 143 142 298 299 303 302) (20 3 80) simpleGrading (2 1 1)
	hex (142 143 147 146 302 303 307 306) (20 3 80) simpleGrading (2 1 1)
	hex (146 147 159 158 306 307 323 322) (20 3 80) simpleGrading (2 1 1)
	hex (158 159 163 162 322 323 327 326) (20 3 80) simpleGrading (2 1 1)
	hex (162 163 167 166 326 327 331 330) (20 3 80) simpleGrading (2 1 1)
	hex (166 167 179 178 330 331 347 346) (20 3 80) simpleGrading (2 1 1)
	hex (178 179 183 182 346 347 351 350) (20 3 80) simpleGrading (2 1 1)
	hex (182 183 187 186 350 351 355 354) (20 3 80) simpleGrading (2 1 1)
	hex (186 187 199 198 354 355 371 370) (20 3 80) simpleGrading (2 1 1)
	hex (198 199 203 202 370 371 375 374) (20 3 80) simpleGrading (2 1 1)
	hex (202 203 207 206 374 375 379 378) (20 3 80) simpleGrading (2 1 1)
	hex (206 207 219 218 378 379 395 394) (20 3 80) simpleGrading (2 1 1)
	hex (218 219 223 222 394 395 399 398) (20 3 80) simpleGrading (2 1 1)
	hex (222 223 227 226 398 399 403 402) (20 3 80) simpleGrading (2 1 1)
	hex (226 227 239 238 402 403 419 418) (20 3 80) simpleGrading (2 1 1)
	hex (238 239 243 242 418 419 423 422) (20 3 80) simpleGrading (2 1 1)
	hex (242 243 247 246 422 423 427 426) (20 15 80) simpleGrading (2 2 1)

	hex (97 98 102 101 249 250 254 253) (3 15 80) simpleGrading (1 0.5 1)
	hex (241 242 246 245 421 422 426 425) (3 15 80) simpleGrading (1 2 1)

	hex (105 108 114 117 257 260 270 273) (3 3 80) simpleGrading (0.5 1 1)
	hex (106 109 108 105 258 261 260 257) (3 3 80) simpleGrading (0.5 1 1)
	hex (118 115 109 106 274 271 261 258) (3 3 80) simpleGrading (0.5 1 1)
	hex (117 114 115 118 273 270 271 274) (3 3 80) simpleGrading (0.5 1 1)
	hex (108 110 112 114 260 262 268 270) (3 3 80) simpleGrading (0.5 1 1)
	hex (109 111 110 108 261 263 262 260) (3 3 80) simpleGrading (0.5 1 1)
	hex (115 113 111 109 271 269 263 261) (3 3 80) simpleGrading (0.5 1 1)
	hex (114 112 113 115 270 268 269 271) (3 3 80) simpleGrading (0.5 1 1)
	hex (101 102 106 105 253 254 258 257) (3 3 80) simpleGrading (1 1 1)
	hex (117 118 121 122 273 274 278 277) (3 3 80) simpleGrading (1 1 1)
	hex (125 128 134 137 281 284 294 297) (3 3 80) simpleGrading (0.5 1 1)
	hex (126 129 128 125 282 285 284 281) (3 3 80) simpleGrading (0.5 1 1)
	hex (138 135 129 126 298 295 285 282) (3 3 80) simpleGrading (0.5 1 1)
	hex (137 134 135 138 297 294 295 298) (3 3 80) simpleGrading (0.5 1 1)
	hex (128 130 132 134 284 286 292 294) (3 3 80) simpleGrading (0.5 1 1)
	hex (129 131 130 128 285 287 286 284) (3 3 80) simpleGrading (0.5 1 1)
	hex (135 133 131 129 295 293 287 285) (3 3 80) simpleGrading (0.5 1 1)
	hex (134 132 133 135 294 292 293 295) (3 3 80) simpleGrading (0.5 1 1)
	hex (121 122 126 125 277 278 282 281) (3 3 80) simpleGrading (1 1 1)
	hex (137 138 141 142 297 298 302 301) (3 3 80) simpleGrading (1 1 1)
	hex (145 148 154 157 305 308 318 321) (3 3 80) simpleGrading (0.5 1 1)
	hex (146 149 148 145 306 309 308 305) (3 3 80) simpleGrading (0.5 1 1)
	hex (158 155 149 146 322 319 309 306) (3 3 80) simpleGrading (0.5 1 1)
	hex (157 154 155 158 321 318 319 322) (3 3 80) simpleGrading (0.5 1 1)
	hex (148 150 152 154 308 310 316 318) (3 3 80) simpleGrading (0.5 1 1)
	hex (149 151 150 148 309 311 310 308) (3 3 80) simpleGrading (0.5 1 1)
	hex (155 153 151 149 319 317 311 309) (3 3 80) simpleGrading (0.5 1 1)
	hex (154 152 153 155 318 316 317 319) (3 3 80) simpleGrading (0.5 1 1)
	hex (141 142 146 145 301 302 306 305) (3 3 80) simpleGrading (1 1 1)
	hex (157 158 161 162 321 322 326 325) (3 3 80) simpleGrading (1 1 1)
	hex (165 168 174 177 329 332 342 345) (3 3 80) simpleGrading (0.5 1 1)
	hex (166 169 168 165 330 333 332 329) (3 3 80) simpleGrading (0.5 1 1)
	hex (178 175 169 166 346 343 333 330) (3 3 80) simpleGrading (0.5 1 1)
	hex (177 174 175 178 345 342 343 346) (3 3 80) simpleGrading (0.5 1 1)
	hex (168 170 172 174 332 334 340 342) (3 3 80) simpleGrading (0.5 1 1)
	hex (169 171 170 168 333 335 334 332) (3 3 80) simpleGrading (0.5 1 1)
	hex (175 173 171 169 343 341 335 333) (3 3 80) simpleGrading (0.5 1 1)
	hex (174 172 173 175 342 340 341 343) (3 3 80) simpleGrading (0.5 1 1)
	hex (161 162 166 165 325 326 330 329) (3 3 80) simpleGrading (1 1 1)
	hex (177 178 181 182 345 346 350 349) (3 3 80) simpleGrading (1 1 1)
	hex (185 188 194 197 353 356 366 369) (3 3 80) simpleGrading (0.5 1 1)
	hex (186 189 188 185 354 357 356 353) (3 3 80) simpleGrading (0.5 1 1)
	hex (198 195 189 186 370 367 357 354) (3 3 80) simpleGrading (0.5 1 1)
	hex (197 194 195 198 369 366 367 370) (3 3 80) simpleGrading (0.5 1 1)
	hex (188 190 192 194 356 358 364 366) (3 3 80) simpleGrading (0.5 1 1)
	hex (189 191 190 188 357 359 358 356) (3 3 80) simpleGrading (0.5 1 1)
	hex (195 193 191 189 367 365 359 357) (3 3 80) simpleGrading (0.5 1 1)
	hex (194 192 193 195 366 364 365 367) (3 3 80) simpleGrading (0.5 1 1)
	hex (181 182 186 185 349 350 354 353) (3 3 80) simpleGrading (1 1 1)
	hex (197 198 201 202 369 370 374 373) (3 3 80) simpleGrading (1 1 1)
	hex (205 208 214 217 377 380 390 393) (3 3 80) simpleGrading (0.5 1 1)
	hex (206 209 208 205 378 381 380 377) (3 3 80) simpleGrading (0.5 1 1)
	hex (218 215 209 206 394 391 381 378) (3 3 80) simpleGrading (0.5 1 1)
	hex (217 214 215 218 393 390 391 394) (3 3 80) simpleGrading (0.5 1 1)
	hex (208 210 212 214 380 382 388 390) (3 3 80) simpleGrading (0.5 1 1)
	hex (209 211 210 208 381 383 382 380) (3 3 80) simpleGrading (0.5 1 1)
	hex (215 213 211 209 391 389 383 381) (3 3 80) simpleGrading (0.5 1 1)
	hex (214 212 213 215 390 388 389 391) (3 3 80) simpleGrading (0.5 1 1)
	hex (201 202 206 205 373 374 378 377) (3 3 80) simpleGrading (1 1 1)
	hex (217 218 221 222 393 394 398 397) (3 3 80) simpleGrading (1 1 1)
	hex (225 228 234 237 401 404 414 417) (3 3 80) simpleGrading (0.5 1 1)
	hex (226 229 228 225 402 405 404 401) (3 3 80) simpleGrading (0.5 1 1)
	hex (238 235 229 226 418 415 405 402) (3 3 80) simpleGrading (0.5 1 1)
	hex (237 234 235 238 417 414 415 418) (3 3 80) simpleGrading (0.5 1 1)
	hex (228 230 232 234 404 406 412 414) (3 3 80) simpleGrading (0.5 1 1)
	hex (229 231 230 228 405 407 406 404) (3 3 80) simpleGrading (0.5 1 1)
	hex (235 233 231 229 415 413 407 405) (3 3 80) simpleGrading (0.5 1 1)
	hex (234 232 233 235 414 412 413 415) (3 3 80) simpleGrading (0.5 1 1)
	hex (221 222 226 225 397 398 402 401) (3 3 80) simpleGrading (1 1 1)
	hex (237 238 241 242 417 418 422 421) (3 3 80) simpleGrading (1 1 1)

	hex (248 249 253 252 428 429 433 432) (10 15 40) simpleGrading (0.5 0.5 1)
	hex (252 253 257 256 432 433 437 436) (10 3 40) simpleGrading (0.5 1 1)
	hex (256 257 273 272 436 437 453 452) (10 3 40) simpleGrading (0.5 1 1)
	hex (272 273 277 276 452 453 457 456) (10 3 40) simpleGrading (0.5 1 1)
	hex (276 277 281 280 456 457 461 460) (10 3 40) simpleGrading (0.5 1 1)
	hex (280 281 297 296 460 461 477 476) (10 3 40) simpleGrading (0.5 1 1)
	hex (296 297 301 300 476 477 481 480) (10 3 40) simpleGrading (0.5 1 1)
	hex (300 301 305 304 480 481 485 484) (10 3 40) simpleGrading (0.5 1 1)
	hex (304 305 321 320 484 485 501 500) (10 3 40) simpleGrading (0.5 1 1)
	hex (320 321 325 324 500 501 505 504) (10 3 40) simpleGrading (0.5 1 1)