/*--------------------------------*- C++ -*----------------------------------*\
| =========                 |                                                 |
| \      /  F ield         | foam-extend: Open Source CFD                    |
|  \    /   O peration     | Version:     4.0                                |
|   \  /    A nd           | Web:         http://www.foam-extend.org         |
|    \/     M anipulation  |                                                 |
\*---------------------------------------------------------------------------*/
FoamFile
{
    version     2.0;
    format      ascii;
    class       dictionary;
    object      blockMeshDict;
}
// * * * * * * * * * * * * * * * * * * * * * * * * * * * * * * * * * * * * * //

convertToMeters 0.000001;
vertices
(
	(0 0 0)      //0
	(646.4466 0 0)      //1
	(1353.5534 0 0)      //2
	(2000 0 0)      //3
	(0 646.4466 0)      //4
	(646.4466 646.4466 0)      //5
	(1353.5534 646.4466 0)      //6
	(2000 646.4466 0)      //7
	(823.2233 823.2233 0)      //8
	(1176.7767 823.2233 0)      //9
	(823.2233 1176.7767 0)      //10
	(1176.7767 1176.7767 0)      //11
	(0 1353.5534 0)      //12
	(646.4466 1353.5534 0)      //13
	(1353.5534 1353.5534 0)      //14
	(2000 1353.5534 0)      //15
	(0 2000 0)      //16
	(646.4466 2000 0)      //17
	(1353.5534 2000 0)      //18
	(2000 2000 0)      //19

	(0 0 1500)      //20
	(646.4466 0 1500)      //21
	(1353.5534 0 1500)      //22
	(2000 0 1500)      //23
	(0 646.4466 1500)      //24
	(646.4466 646.4466 1500)      //25
	(1353.5534 646.4466 1500)      //26
	(2000 646.4466 1500)      //27
	(823.2233 823.2233 1500)      //28
	(1176.7767 823.2233 1500)      //29
	(823.2233 1176.7767 1500)      //30
	(1176.7767 1176.7767 1500)      //31
	(0 1353.5534 1500)      //32
	(646.4466 1353.5534 1500)      //33
	(1353.5534 1353.5534 1500)      //34
	(2000 1353.5534 1500)      //35
	(0 2000 1500)      //36
	(646.4466 2000 1500)      //37
	(1353.5534 2000 1500)      //38
	(2000 2000 1500)      //39

	(0 0 2000)      //40
	(2000 0 2000)      //41
	(0 2000 2000)      //42
	(2000 2000 2000)      //43

);

blocks
(
	hex (0 1 5 4 20 21 25 24) (20 20 40) simpleGrading (1 1 1)
	hex (1 2 6 5 21 22 26 25) (20 20 40) simpleGrading (1 1 1)
	hex (2 3 7 6 22 23 27 26) (20 20 40) simpleGrading (1 1 1)
	hex (4 5 13 12 24 25 33 32) (20 20 40) simpleGrading (1 1 1)
	hex (5 8 10 13 25 28 30 33) (10 20 40) simpleGrading (1 1 1)
	hex (5 6 9 8 25 26 29 28) (20 10 40) simpleGrading (1 1 1)
	hex (9 6 14 11 29 26 34 31) (10 20 40) simpleGrading (1 1 1)
	hex (6 7 15 14 26 27 35 34) (20 20 40) simpleGrading (1 1 1)
	hex (10 11 14 13 30 31 34 33) (20 10 40) simpleGrading (1 1 1)
	hex (12 13 17 16 32 33 37 36) (20 20 40) simpleGrading (1 1 1)
	hex (13 14 18 17 33 34 38 37) (20 20 40) simpleGrading (1 1 1)
	hex (14 15 19 18 34 35 39 38) (20 20 40) simpleGrading (1 1 1)

	hex (20 23 39 36 40 41 43 42) (60 60 13) simpleGrading (1 1 1)

);

edges
(
	arc 8 9 (1000.0 750.0 0)
	arc 9 11 (1250.0 1000.0 0)
	arc 11 10 (1000.0 1250.0 0)
	arc 10 8 (750.0 1000.0 0)
);

patches
(
	patch bottom
	(
		(0 1 5 4)
		(1 2 6 5)
		(2 3 7 6)
		(4 5 13 12)
		(5 8 10 13)
		(5 6 9 8)
		(9 6 14 11)
		(6 7 15 14)
		(10 11 14 13)
		(12 13 17 16)
		(13 14 18 17)
		(14 15 19 18)
	)

	patch top
	(
		(40 41 43 42)
	)

	patch inlet1
	(
		(20 0 4 24)
		(24 4 12 32)
		(32 12 16 36)
	)

	patch inlet2
	(
		(40 20 36 42)
	)

	patch outlet1
	(
		(23 3 7 27)
		(27 7 15 35)
		(35 15 19 39)
	)

	patch outlet2
	(
		(41 23 39 43)
	)

	patch bristle
	(
		(8 9 29 28)
		(9 11 31 29)
		(10 11 31 30)
		(8 10 30 28)
	)

	empty frontAndBackPlanes
	(
		(40 20 21 41)
		(20 0 1 21)
		(41 21 22 42)
		(21 1 2 22)
		(42 22 23 43)
		(22 2 3 23)
		(52 36 37 53)
		(36 16 17 37)
		(53 37 38 54)
		(37 17 18 38)
		(54 38 39 55)
		(38 18 19 39)
	)

	empty cylinderTop
	(
		(25 26 34 33)
	)
);

mergePatchPairs
(
	(bristleTop cylinderTop)
);


// ************************************************************************* //

