/*--------------------------------*- C++ -*----------------------------------*\
| =========                 |                                                 |
| \      /  F ield         | foam-extend: Open Source CFD                    |
|  \    /   O peration     | Version:     4.0                                |
|   \  /    A nd           | Web:         http://www.foam-extend.org         |
|    \/     M anipulation  |                                                 |
\*---------------------------------------------------------------------------*/
FoamFile
{
    version     2.0;
    format      ascii;
    class       dictionary;
    object      blockMeshDict;
}
// * * * * * * * * * * * * * * * * * * * * * * * * * * * * * * * * * * * * * //

convertToMeters 0.001;
vertices
(
	(0 0 0)      //0
	(102 0 0)      //1
	(108 0 0)      //2
	(210 0 0)      //3
	(0 6 0)      //4
	(102 6 0)      //5
	(108 6 0)      //6
	(210 6 0)      //7
	(0 12 0)      //8
	(102 12 0)      //9
	(108 12 0)      //10
	(210 12 0)      //11
	(0 18 0)      //12
	(102 18 0)      //13
	(108 18 0)      //14
	(210 18 0)      //15
	(0 0 1)      //16
	(102 0 1)      //17
	(108 0 1)      //18
	(210 0 1)      //19
	(0 6 1)      //20
	(102 6 1)      //21
	(108 6 1)      //22
	(210 6 1)      //23
	(104.6464 8.6464 1)      //24
	(105.3536 8.6464 1)      //25
	(104.6464 9.3536 1)      //26
	(105.3536 9.3536 1)      //27
	(0 12 1)      //28
	(102 12 1)      //29
	(108 12 1)      //30
	(210 12 1)      //31
	(0 18 1)      //32
	(102 18 1)      //33
	(108 18 1)      //34
	(210 18 1)      //35
	(0 0 101)      //36
	(102 0 101)      //37
	(108 0 101)      //38
	(210 0 101)      //39
	(0 6 101)      //40
	(102 6 101)      //41
	(108 6 101)      //42
	(210 6 101)      //43
	(104.6464 8.6464 101)      //44
	(105.3536 8.6464 101)      //45
	(104.8232 8.8232 101)      //46
	(105.1768 8.8232 101)      //47
	(104.8232 9.1768 101)      //48
	(105.1768 9.1768 101)      //49
	(104.6464 9.3536 101)      //50
	(105.3536 9.3536 101)      //51
	(0 12 101)      //52
	(102 12 101)      //53
	(108 12 101)      //54
	(210 12 101)      //55
	(0 18 101)      //56
	(102 18 101)      //57
	(108 18 101)      //58
	(210 18 101)      //59
	(0 0 201)      //60
	(102 0 201)      //61
	(108 0 201)      //62
	(210 0 201)      //63
	(0 6 201)      //64
	(102 6 201)      //65
	(108 6 201)      //66
	(210 6 201)      //67
	(104.6464 8.6464 201)      //68
	(105.3536 8.6464 201)      //69
	(104.8232 8.8232 201)      //70
	(105.1768 8.8232 201)      //71
	(104.8232 9.1768 201)      //72
	(105.1768 9.1768 201)      //73
	(104.6464 9.3536 201)      //74
	(105.3536 9.3536 201)      //75
	(0 12 201)      //76
	(102 12 201)      //77
	(108 12 201)      //78
	(210 12 201)      //79
	(0 18 201)      //80
	(102 18 201)      //81
	(108 18 201)      //82
	(210 18 201)      //83

);

blocks
(
	hex (0 1 5 4 16 17 21 20) (2 2 1) simpleGrading (0.1 0.1 1)
	hex (4 5 9 8 20 21 29 28) (2 2 1) simpleGrading (0.1 1 1)
	hex (8 9 13 12 28 29 33 32) (2 2 1) simpleGrading (0.1 10 1)

	hex (2 3 7 6 18 19 23 22) (2 2 1) simpleGrading (10 0.1 1)
	hex (6 7 11 10 22 23 31 30) (2 2 1) simpleGrading (10 1 1)
	hex (10 11 15 14 30 31 35 34) (2 2 1) simpleGrading (10 10 1)

	hex (1 2 6 5 17 18 22 21) (2 2 1) simpleGrading (1 0.1 1)
	hex (9 10 14 13 29 30 34 33) (2 2 1) simpleGrading (1 10 1)

	hex (16 17 21 20 36 37 41 40) (2 2 20) simpleGrading (0.1 0.1 1)
	hex (20 21 29 28 40 41 53 52) (2 2 20) simpleGrading (0.1 1 1)
	hex (28 29 33 32 52 53 57 56) (2 2 20) simpleGrading (0.1 10 1)

	hex (18 19 23 22 38 39 43 42) (2 2 20) simpleGrading (10 0.1 1)
	hex (22 23 31 30 42 43 55 54) (2 2 20) simpleGrading (10 1 1)
	hex (30 31 35 34 54 55 59 58) (2 2 20) simpleGrading (10 10 1)

	hex (17 18 22 21 37 38 42 41) (2 2 20) simpleGrading (1 0.1 1)
	hex (29 30 34 33 53 54 58 57) (2 2 20) simpleGrading (1 10 1)

	hex (21 24 26 29 41 44 50 53) (2 2 20) simpleGrading (1 1 1)
	hex (22 25 24 21 42 45 44 41) (2 2 20) simpleGrading (1 1 1)
	hex (30 27 25 22 54 51 45 42) (2 2 20) simpleGrading (1 1 1)
	hex (29 26 27 30 53 50 51 54) (2 2 20) simpleGrading (1 1 1)

	hex (36 37 41 40 60 61 65 64) (2 2 20) simpleGrading (0.1 0.1 1)
	hex (40 41 53 52 64 65 77 76) (2 2 20) simpleGrading (0.1 1 1)
	hex (52 53 57 56 76 77 81 80) (2 2 20) simpleGrading (0.1 10 1)

	hex (38 39 43 42 62 63 67 66) (2 2 20) simpleGrading (10 0.1 1)
	hex (42 43 55 54 66 67 79 78) (2 2 20) simpleGrading (10 1 1)
	hex (54 55 59 58 78 79 83 82) (2 2 20) simpleGrading (10 10 1)

	hex (37 38 42 41 61 62 66 65) (2 2 20) simpleGrading (1 0.1 1)
	hex (53 54 58 57 77 78 82 81) (2 2 20) simpleGrading (1 10 1)

	hex (41 44 50 53 65 68 74 77) (2 2 20) simpleGrading (1 1 1)
	hex (42 45 44 41 66 69 68 65) (2 2 20) simpleGrading (1 1 1)
	hex (54 51 45 42 78 75 69 66) (2 2 20) simpleGrading (1 1 1)
	hex (53 50 51 54 77 74 75 78) (2 2 20) simpleGrading (1 1 1)

	hex (46 47 49 48 70 71 73 72) (2 2 20) simpleGrading (1 1 1)
	hex (44 46 48 50 68 70 72 74) (2 2 20) simpleGrading (1 1 1)
	hex (45 47 46 44 69 71 70 68) (2 2 20) simpleGrading (1 1 1)
	hex (51 49 47 45 75 73 71 69) (2 2 20) simpleGrading (1 1 1)
	hex (50 48 49 51 74 72 73 75) (2 2 20) simpleGrading (1 1 1)

);

edges
(
	arc 24 25 (105.0 8.5 1)
	arc 25 27 (105.5 9.0 1)
	arc 27 26 (105.0 9.5 1)
	arc 26 24 (104.5 9.0 1)

	arc 44 45 (105.0 8.5 101)
	arc 45 51 (105.5 9.0 101)
	arc 51 50 (105.0 9.5 101)
	arc 50 44 (104.5 9.0 101)

	arc 68 69 (105.0 8.5 201)
	arc 69 75 (105.5 9.0 201)
	arc 75 74 (105.0 9.5 201)
	arc 74 68 (104.5 9.0 201)
);

patches
(
	patch bottom
	(
		(4 5 1 0)
		(5 6 2 1)
		(6 7 3 2)
		(8 9 5 4)
		(10 11 7 6)
		(12 13 9 8)
		(13 14 10 9)
		(14 15 11 10)
	)

	patch top
	(
		(60 61 65 64)
		(64 65 77 76)
		(76 77 81 80)
		(62 63 67 66)
		(66 67 79 78)
		(78 79 83 82)
		(61 62 66 65)
		(77 78 82 81)
		(65 68 74 77)
		(66 69 68 65)
		(78 75 69 66)
		(77 74 75 78)
		(70 71 73 72)
		(68 70 72 74)
		(69 71 70 68)
		(75 73 71 69)
		(74 72 73 75)
	)

	patch inlet
	(
		(16 20 4 0)
		(36 40 20 16)
		(60 64 40 36)
		(20 28 8 4)
		(40 52 28 20)
		(64 76 52 40)
		(28 32 12 8)
		(52 56 32 28)
		(76 80 56 52)
	)

	patch outlet
	(
		(3 7 23 19)
		(19 23 43 39)
		(39 43 67 63)
		(7 11 31 23)
		(23 31 55 43)
		(43 55 79 67)
		(11 15 35 31)
		(31 35 59 55)
		(55 59 83 79)
	)

	patch bristle
	(
		(9 29 21 5)
		(10 30 22 6)
		(5 21 22 6)
		(10 30 29 9)
		(29 26 24 21)
		(21 24 25 22)
		(22 25 27 30)
		(30 27 26 29)
		(48 49 47 46)
		(50 48 46 44)
		(44 46 47 45)
		(45 47 49 51)
		(51 49 48 50)
		(26 50 44 24)
		(24 44 45 25)
		(25 45 51 27)
		(27 51 50 26)
	)

	patch frontAndBackPlanes
	(
		(0 1 17 16)
		(16 17 37 36)
		(36 37 61 60)
		(12 32 33 13)
		(32 56 57 33)
		(56 80 81 57)
		(1 2 18 17)
		(17 18 38 37)
		(37 38 62 61)
		(13 33 34 14)
		(33 57 58 34)
		(57 81 82 58)
		(2 3 19 18)
		(18 19 39 38)
		(38 39 63 62)
		(14 34 35 15)
		(34 58 59 35)
		(58 82 83 59)
	)
);

mergePatchPairs
(
);


// ************************************************************************* //

