/*--------------------------------*- C++ -*----------------------------------*\
| =========                 |                                                 |
| \      /  F ield         | foam-extend: Open Source CFD                    |
|  \    /   O peration     | Version:     4.0                                |
|   \  /    A nd           | Web:         http://www.foam-extend.org         |
|    \/     M anipulation  |                                                 |
\*---------------------------------------------------------------------------*/
FoamFile
{
    version     2.0;
    format      ascii;
    class       dictionary;
    object      blockMeshDict;
}
// * * * * * * * * * * * * * * * * * * * * * * * * * * * * * * * * * * * * * //

convertToMeters 1;
vertices
(
	(0 0 0)      //0
	(50 0 0)      //1
	(56 0 0)      //2
	(156 0 0)      //3
	(0 38 0)      //4
	(50 38 0)      //5
	(56 38 0)      //6
	(156 38 0)      //7
	(0 46 0)      //8
	(50 46 0)      //9
	(56 46 0)      //10
	(156 46 0)      //11
	(0 52 0)      //12
	(50 52 0)      //13
	(56 52 0)      //14
	(156 52 0)      //15
	(0 60 0)      //16
	(50 60 0)      //17
	(56 60 0)      //18
	(156 60 0)      //19
	(0 68 0)      //20
	(50 68 0)      //21
	(56 68 0)      //22
	(156 68 0)      //23
	(0 74 0)      //24
	(50 74 0)      //25
	(56 74 0)      //26
	(156 74 0)      //27
	(0 82 0)      //28
	(50 82 0)      //29
	(56 82 0)      //30
	(156 82 0)      //31
	(0 90 0)      //32
	(50 90 0)      //33
	(56 90 0)      //34
	(156 90 0)      //35
	(0 96 0)      //36
	(50 96 0)      //37
	(56 96 0)      //38
	(156 96 0)      //39
	(0 104 0)      //40
	(50 104 0)      //41
	(56 104 0)      //42
	(156 104 0)      //43
	(0 112 0)      //44
	(50 112 0)      //45
	(56 112 0)      //46
	(156 112 0)      //47
	(0 118 0)      //48
	(50 118 0)      //49
	(56 118 0)      //50
	(156 118 0)      //51
	(0 126 0)      //52
	(50 126 0)      //53
	(56 126 0)      //54
	(156 126 0)      //55
	(0 134 0)      //56
	(50 134 0)      //57
	(56 134 0)      //58
	(156 134 0)      //59
	(0 140 0)      //60
	(50 140 0)      //61
	(56 140 0)      //62
	(156 140 0)      //63
	(0 148 0)      //64
	(50 148 0)      //65
	(56 148 0)      //66
	(156 148 0)      //67
	(0 156 0)      //68
	(50 156 0)      //69
	(56 156 0)      //70
	(156 156 0)      //71
	(0 162 0)      //72
	(50 162 0)      //73
	(56 162 0)      //74
	(156 162 0)      //75
	(0 170 0)      //76
	(50 170 0)      //77
	(56 170 0)      //78
	(156 170 0)      //79
	(0 178 0)      //80
	(50 178 0)      //81
	(56 178 0)      //82
	(156 178 0)      //83
	(0 184 0)      //84
	(50 184 0)      //85
	(56 184 0)      //86
	(156 184 0)      //87
	(0 192 0)      //88
	(50 192 0)      //89
	(56 192 0)      //90
	(156 192 0)      //91
	(0 230 0)      //92
	(50 230 0)      //93
	(56 230 0)      //94
	(156 230 0)      //95
	(0 0 4)      //96
	(50 0 4)      //97
	(56 0 4)      //98
	(156 0 4)      //99
	(0 38 4)      //100
	(50 38 4)      //101
	(56 38 4)      //102
	(156 38 4)      //103
	(0 46 4)      //104
	(50 46 4)      //105
	(56 46 4)      //106
	(156 46 4)      //107
	(51.5858 47.5858 4)      //108
	(54.4142 47.5858 4)      //109
	(52.2929 48.2929 4)      //110
	(53.7071 48.2929 4)      //111
	(52.2929 49.7071 4)      //112
	(53.7071 49.7071 4)      //113
	(51.5858 50.4142 4)      //114
	(54.4142 50.4142 4)      //115
	(0 52 4)      //116
	(50 52 4)      //117
	(56 52 4)      //118
	(156 52 4)      //119
	(0 60 4)      //120
	(50 60 4)      //121
	(56 60 4)      //122
	(156 60 4)      //123
	(0 68 4)      //124
	(50 68 4)      //125
	(56 68 4)      //126
	(156 68 4)      //127
	(51.5858 69.5858 4)      //128
	(54.4142 69.5858 4)      //129
	(52.2929 70.2929 4)      //130
	(53.7071 70.2929 4)      //131
	(52.2929 71.7071 4)      //132
	(53.7071 71.7071 4)      //133
	(51.5858 72.4142 4)      //134
	(54.4142 72.4142 4)      //135
	(0 74 4)      //136
	(50 74 4)      //137
	(56 74 4)      //138
	(156 74 4)      //139
	(0 82 4)      //140
	(50 82 4)      //141
	(56 82 4)      //142
	(156 82 4)      //143
	(0 90 4)      //144
	(50 90 4)      //145
	(56 90 4)      //146
	(156 90 4)      //147
	(51.5858 91.5858 4)      //148
	(54.4142 91.5858 4)      //149
	(52.2929 92.2929 4)      //150
	(53.7071 92.2929 4)      //151
	(52.2929 93.7071 4)      //152
	(53.7071 93.7071 4)      //153
	(51.5858 94.4142 4)      //154
	(54.4142 94.4142 4)      //155
	(0 96 4)      //156
	(50 96 4)      //157
	(56 96 4)      //158
	(156 96 4)      //159
	(0 104 4)      //160
	(50 104 4)      //161
	(56 104 4)      //162
	(156 104 4)      //163
	(0 112 4)      //164
	(50 112 4)      //165
	(56 112 4)      //166
	(156 112 4)      //167
	(51.5858 113.5858 4)      //168
	(54.4142 113.5858 4)      //169
	(52.2929 114.2929 4)      //170
	(53.7071 114.2929 4)      //171
	(52.2929 115.7071 4)      //172
	(53.7071 115.7071 4)      //173
	(51.5858 116.4142 4)      //174
	(54.4142 116.4142 4)      //175
	(0 118 4)      //176
	(50 118 4)      //177
	(56 118 4)      //178
	(156 118 4)      //179
	(0 126 4)      //180
	(50 126 4)      //181
	(56 126 4)      //182
	(156 126 4)      //183
	(0 134 4)      //184
	(50 134 4)      //185
	(56 134 4)      //186
	(156 134 4)      //187
	(51.5858 135.5858 4)      //188
	(54.4142 135.5858 4)      //189
	(52.2929 136.2929 4)      //190
	(53.7071 136.2929 4)      //191
	(52.2929 137.7071 4)      //192
	(53.7071 137.7071 4)      //193
	(51.5858 138.4142 4)      //194
	(54.4142 138.4142 4)      //195
	(0 140 4)      //196
	(50 140 4)      //197
	(56 140 4)      //198
	(156 140 4)      //199
	(0 148 4)      //200
	(50 148 4)      //201
	(56 148 4)      //202
	(156 148 4)      //203
	(0 156 4)      //204
	(50 156 4)      //205
	(56 156 4)      //206
	(156 156 4)      //207
	(51.5858 157.5858 4)      //208
	(54.4142 157.5858 4)      //209
	(52.2929 158.2929 4)      //210
	(53.7071 158.2929 4)      //211
	(52.2929 159.7071 4)      //212
	(53.7071 159.7071 4)      //213
	(51.5858 160.4142 4)      //214
	(54.4142 160.4142 4)      //215
	(0 162 4)      //216
	(50 162 4)      //217
	(56 162 4)      //218
	(156 162 4)      //219
	(0 170 4)      //220
	(50 170 4)      //221
	(56 170 4)      //222
	(156 170 4)      //223
	(0 178 4)      //224
	(50 178 4)      //225
	(56 178 4)      //226
	(156 178 4)      //227
	(51.5858 179.5858 4)      //228
	(54.4142 179.5858 4)      //229
	(52.2929 180.2929 4)      //230
	(53.7071 180.2929 4)      //231
	(52.2929 181.7071 4)      //232
	(53.7071 181.7071 4)      //233
	(51.5858 182.4142 4)      //234
	(54.4142 182.4142 4)      //235
	(0 184 4)      //236
	(50 184 4)      //237
	(56 184 4)      //238
	(156 184 4)      //239
	(0 192 4)      //240
	(50 192 4)      //241
	(56 192 4)      //242
	(156 192 4)      //243
	(0 230 4)      //244
	(50 230 4)      //245
	(56 230 4)      //246
	(156 230 4)      //247
	(0 0 144)      //248
	(50 0 144)      //249
	(56 0 144)      //250
	(156 0 144)      //251
	(0 38 144)      //252
	(50 38 144)      //253
	(56 38 144)      //254
	(156 38 144)      //255
	(0 46 144)      //256
	(50 46 144)      //257
	(56 46 144)      //258
	(156 46 144)      //259
	(51.5858 47.5858 144)      //260
	(54.4142 47.5858 144)      //261
	(52.2929 48.2929 144)      //262
	(53.7071 48.2929 144)      //263
	(52.505 48.505 144)      //264
	(53.495 48.505 144)      //265
	(52.505 49.495 144)      //266
	(53.495 49.495 144)      //267
	(52.2929 49.7071 144)      //268
	(53.7071 49.7071 144)      //269
	(51.5858 50.4142 144)      //270
	(54.4142 50.4142 144)      //271
	(0 52 144)      //272
	(50 52 144)      //273
	(56 52 144)      //274
	(156 52 144)      //275
	(0 60 144)      //276
	(50 60 144)      //277
	(56 60 144)      //278
	(156 60 144)      //279
	(0 68 144)      //280
	(50 68 144)      //281
	(56 68 144)      //282
	(156 68 144)      //283
	(51.5858 69.5858 144)      //284
	(54.4142 69.5858 144)      //285
	(52.2929 70.2929 144)      //286
	(53.7071 70.2929 144)      //287
	(52.505 70.505 144)      //288
	(53.495 70.505 144)      //289
	(52.505 71.495 144)      //290
	(53.495 71.495 144)      //291
	(52.2929 71.7071 144)      //292
	(53.7071 71.7071 144)      //293
	(51.5858 72.4142 144)      //294
	(54.4142 72.4142 144)      //295
	(0 74 144)      //296
	(50 74 144)      //297
	(56 74 144)      //298
	(156 74 144)      //299
	(0 82 144)      //300
	(50 82 144)      //301
	(56 82 144)      //302
	(156 82 144)      //303
	(0 90 144)      //304
	(50 90 144)      //305
	(56 90 144)      //306
	(156 90 144)      //307
	(51.5858 91.5858 144)      //308
	(54.4142 91.5858 144)      //309
	(52.2929 92.2929 144)      //310
	(53.7071 92.2929 144)      //311
	(52.505 92.505 144)      //312
	(53.495 92.505 144)      //313
	(52.505 93.495 144)      //314
	(53.495 93.495 144)      //315
	(52.2929 93.7071 144)      //316
	(53.7071 93.7071 144)      //317
	(51.5858 94.4142 144)      //318
	(54.4142 94.4142 144)      //319
	(0 96 144)      //320
	(50 96 144)      //321
	(56 96 144)      //322
	(156 96 144)      //323
	(0 104 144)      //324
	(50 104 144)      //325
	(56 104 144)      //326
	(156 104 144)      //327
	(0 112 144)      //328
	(50 112 144)      //329
	(56 112 144)      //330
	(156 112 144)      //331
	(51.5858 113.5858 144)      //332
	(54.4142 113.5858 144)      //333
	(52.2929 114.2929 144)      //334
	(53.7071 114.2929 144)      //335
	(52.505 114.505 144)      //336
	(53.495 114.505 144)      //337
	(52.505 115.495 144)      //338
	(53.495 115.495 144)      //339
	(52.2929 115.7071 144)      //340
	(53.7071 115.7071 144)      //341
	(51.5858 116.4142 144)      //342
	(54.4142 116.4142 144)      //343
	(0 118 144)      //344
	(50 118 144)      //345
	(56 118 144)      //346
	(156 118 144)      //347
	(0 126 144)      //348
	(50 126 144)      //349
	(56 126 144)      //350
	(156 126 144)      //351
	(0 134 144)      //352
	(50 134 144)      //353
	(56 134 144)      //354
	(156 134 144)      //355
	(51.5858 135.5858 144)      //356
	(54.4142 135.5858 144)      //357
	(52.2929 136.2929 144)      //358
	(53.7071 136.2929 144)      //359
	(52.505 136.505 144)      //360
	(53.495 136.505 144)      //361
	(52.505 137.495 144)      //362
	(53.495 137.495 144)      //363
	(52.2929 137.7071 144)      //364
	(53.7071 137.7071 144)      //365
	(51.5858 138.4142 144)      //366
	(54.4142 138.4142 144)      //367
	(0 140 144)      //368
	(50 140 144)      //369
	(56 140 144)      //370
	(156 140 144)      //371
	(0 148 144)      //372
	(50 148 144)      //373
	(56 148 144)      //374
	(156 148 144)      //375
	(0 156 144)      //376
	(50 156 144)      //377
	(56 156 144)      //378
	(156 156 144)      //379
	(51.5858 157.5858 144)      //380
	(54.4142 157.5858 144)      //381
	(52.2929 158.2929 144)      //382
	(53.7071 158.2929 144)      //383
	(52.505 158.505 144)      //384
	(53.495 158.505 144)      //385
	(52.505 159.495 144)      //386
	(53.495 159.495 144)      //387
	(52.2929 159.7071 144)      //388
	(53.7071 159.7071 144)      //389
	(51.5858 160.4142 144)      //390
	(54.4142 160.4142 144)      //391
	(0 162 144)      //392
	(50 162 144)      //393
	(56 162 144)      //394
	(156 162 144)      //395
	(0 170 144)      //396
	(50 170 144)      //397
	(56 170 144)      //398
	(156 170 144)      //399
	(0 178 144)      //400
	(50 178 144)      //401
	(56 178 144)      //402
	(156 178 144)      //403
	(51.5858 179.5858 144)      //404
	(54.4142 179.5858 144)      //405
	(52.2929 180.2929 144)      //406
	(53.7071 180.2929 144)      //407
	(52.505 180.505 144)      //408
	(53.495 180.505 144)      //409
	(52.505 181.495 144)      //410
	(53.495 181.495 144)      //411
	(52.2929 181.7071 144)      //412
	(53.7071 181.7071 144)      //413
	(51.5858 182.4142 144)      //414
	(54.4142 182.4142 144)      //415
	(0 184 144)      //416
	(50 184 144)      //417
	(56 184 144)      //418
	(156 184 144)      //419
	(0 192 144)      //420
	(50 192 144)      //421
	(56 192 144)      //422
	(156 192 144)      //423
	(0 230 144)      //424
	(50 230 144)      //425
	(56 230 144)      //426
	(156 230 144)      //427
	(0 0 214)      //428
	(50 0 214)      //429
	(56 0 214)      //430
	(156 0 214)      //431
	(0 38 214)      //432
	(50 38 214)      //433
	(56 38 214)      //434
	(156 38 214)      //435
	(0 46 214)      //436
	(50 46 214)      //437
	(56 46 214)      //438
	(156 46 214)      //439
	(51.5858 47.5858 214)      //440
	(54.4142 47.5858 214)      //441
	(52.2929 48.2929 214)      //442
	(53.7071 48.2929 214)      //443
	(52.505 48.505 214)      //444
	(53.495 48.505 214)      //445
	(52.505 49.495 214)      //446
	(53.495 49.495 214)      //447
	(52.2929 49.7071 214)      //448
	(53.7071 49.7071 214)      //449
	(51.5858 50.4142 214)      //450
	(54.4142 50.4142 214)      //451
	(0 52 214)      //452
	(50 52 214)      //453
	(56 52 214)      //454
	(156 52 214)      //455
	(0 60 214)      //456
	(50 60 214)      //457
	(56 60 214)      //458
	(156 60 214)      //459
	(0 68 214)      //460
	(50 68 214)      //461
	(56 68 214)      //462
	(156 68 214)      //463
	(51.5858 69.5858 214)      //464
	(54.4142 69.5858 214)      //465
	(52.2929 70.2929 214)      //466
	(53.7071 70.2929 214)      //467
	(52.505 70.505 214)      //468
	(53.495 70.505 214)      //469
	(52.505 71.495 214)      //470
	(53.495 71.495 214)      //471
	(52.2929 71.7071 214)      //472
	(53.7071 71.7071 214)      //473
	(51.5858 72.4142 214)      //474
	(54.4142 72.4142 214)      //475
	(0 74 214)      //476
	(50 74 214)      //477
	(56 74 214)      //478
	(156 74 214)      //479
	(0 82 214)      //480
	(50 82 214)      //481
	(56 82 214)      //482
	(156 82 214)      //483
	(0 90 214)      //484
	(50 90 214)      //485
	(56 90 214)      //486
	(156 90 214)      //487
	(51.5858 91.5858 214)      //488
	(54.4142 91.5858 214)      //489
	(52.2929 92.2929 214)      //490
	(53.7071 92.2929 214)      //491
	(52.505 92.505 214)      //492
	(53.495 92.505 214)      //493
	(52.505 93.495 214)      //494
	(53.495 93.495 214)      //495
	(52.2929 93.7071 214)      //496
	(53.7071 93.7071 214)      //497
	(51.5858 94.4142 214)      //498
	(54.4142 94.4142 214)      //499
	(0 96 214)      //500
	(50 96 214)      //501
	(56 96 214)      //502
	(156 96 214)      //503
	(0 104 214)      //504
	(50 104 214)      //505
	(56 104 214)      //506
	(156 104 214)      //507
	(0 112 214)      //508
	(50 112 214)      //509
	(56 112 214)      //510
	(156 112 214)      //511
	(51.5858 113.5858 214)      //512
	(54.4142 113.5858 214)      //513
	(52.2929 114.2929 214)      //514
	(53.7071 114.2929 214)      //515
	(52.505 114.505 214)      //516
	(53.495 114.505 214)      //517
	(52.505 115.495 214)      //518
	(53.495 115.495 214)      //519
	(52.2929 115.7071 214)      //520
	(53.7071 115.7071 214)      //521
	(51.5858 116.4142 214)      //522
	(54.4142 116.4142 214)      //523
	(0 118 214)      //524
	(50 118 214)      //525
	(56 118 214)      //526
	(156 118 214)      //527
	(0 126 214)      //528
	(50 126 214)      //529
	(56 126 214)      //530
	(156 126 214)      //531
	(0 134 214)      //532
	(50 134 214)      //533
	(56 134 214)      //534
	(156 134 214)      //535
	(51.5858 135.5858 214)      //536
	(54.4142 135.5858 214)      //537
	(52.2929 136.2929 214)      //538
	(53.7071 136.2929 214)      //539
	(52.505 136.505 214)      //540
	(53.495 136.505 214)      //541
	(52.505 137.495 214)      //542
	(53.495 137.495 214)      //543
	(52.2929 137.7071 214)      //544
	(53.7071 137.7071 214)      //545
	(51.5858 138.4142 214)      //546
	(54.4142 138.4142 214)      //547
	(0 140 214)      //548
	(50 140 214)      //549
	(56 140 214)      //550
	(156 140 214)      //551
	(0 148 214)      //552
	(50 148 214)      //553
	(56 148 214)      //554
	(156 148 214)      //555
	(0 156 214)      //556
	(50 156 214)      //557
	(56 156 214)      //558
	(156 156 214)      //559
	(51.5858 157.5858 214)      //560
	(54.4142 157.5858 214)      //561
	(52.2929 158.2929 214)      //562
	(53.7071 158.2929 214)      //563
	(52.505 158.505 214)      //564
	(53.495 158.505 214)      //565
	(52.505 159.495 214)      //566
	(53.495 159.495 214)      //567
	(52.2929 159.7071 214)      //568
	(53.7071 159.7071 214)      //569
	(51.5858 160.4142 214)      //570
	(54.4142 160.4142 214)      //571
	(0 162 214)      //572
	(50 162 214)      //573
	(56 162 214)      //574
	(156 162 214)      //575
	(0 170 214)      //576
	(50 170 214)      //577
	(56 170 214)      //578
	(156 170 214)      //579
	(0 178 214)      //580
	(50 178 214)      //581
	(56 178 214)      //582
	(156 178 214)      //583
	(51.5858 179.5858 214)      //584
	(54.4142 179.5858 214)      //585
	(52.2929 180.2929 214)      //586
	(53.7071 180.2929 214)      //587
	(52.505 180.505 214)      //588
	(53.495 180.505 214)      //589
	(52.505 181.495 214)      //590
	(53.495 181.495 214)      //591
	(52.2929 181.7071 214)      //592
	(53.7071 181.7071 214)      //593
	(51.5858 182.4142 214)      //594
	(54.4142 182.4142 214)      //595
	(0 184 214)      //596
	(50 184 214)      //597
	(56 184 214)      //598
	(156 184 214)      //599
	(0 192 214)      //600
	(50 192 214)      //601
	(56 192 214)      //602
	(156 192 214)      //603
	(0 230 214)      //604
	(50 230 214)      //605
	(56 230 214)      //606
	(156 230 214)      //607

);

blocks
(
	hex (0 1 5 4 96 97 101 100) (20 20 5) simpleGrading (0.5 1 1)
	hex (4 5 9 8 100 101 105 104) (20 5 5) simpleGrading (0.5 1 1)
	hex (8 9 13 12 104 105 117 116) (20 4 5) simpleGrading (0.5 1 1)
	hex (12 13 17 16 116 117 121 120) (20 5 5) simpleGrading (0.5 1 1)
	hex (16 17 21 20 120 121 125 124) (20 5 5) simpleGrading (0.5 1 1)
	hex (20 21 25 24 124 125 137 136) (20 4 5) simpleGrading (0.5 1 1)
	hex (24 25 29 28 136 137 141 140) (20 5 5) simpleGrading (0.5 1 1)
	hex (28 29 33 32 140 141 145 144) (20 5 5) simpleGrading (0.5 1 1)
	hex (32 33 37 36 144 145 157 156) (20 4 5) simpleGrading (0.5 1 1)
	hex (36 37 41 40 156 157 161 160) (20 5 5) simpleGrading (0.5 1 1)
	hex (40 41 45 44 160 161 165 164) (20 5 5) simpleGrading (0.5 1 1)
	hex (44 45 49 48 164 165 177 176) (20 4 5) simpleGrading (0.5 1 1)
	hex (48 49 53 52 176 177 181 180) (20 5 5) simpleGrading (0.5 1 1)
	hex (52 53 57 56 180 181 185 184) (20 5 5) simpleGrading (0.5 1 1)
	hex (56 57 61 60 184 185 197 196) (20 4 5) simpleGrading (0.5 1 1)
	hex (60 61 65 64 196 197 201 200) (20 5 5) simpleGrading (0.5 1 1)
	hex (64 65 69 68 200 201 205 204) (20 5 5) simpleGrading (0.5 1 1)
	hex (68 69 73 72 204 205 217 216) (20 4 5) simpleGrading (0.5 1 1)
	hex (72 73 77 76 216 217 221 220) (20 5 5) simpleGrading (0.5 1 1)
	hex (76 77 81 80 220 221 225 224) (20 5 5) simpleGrading (0.5 1 1)
	hex (80 81 85 84 224 225 237 236) (20 4 5) simpleGrading (0.5 1 1)
	hex (84 85 89 88 236 237 241 240) (20 5 5) simpleGrading (0.5 1 1)
	hex (88 89 93 92 240 241 245 244) (20 20 5) simpleGrading (0.5 1 1)

	hex (2 3 7 6 98 99 103 102) (40 20 5) simpleGrading (2 1 1)
	hex (6 7 11 10 102 103 107 106) (40 5 5) simpleGrading (2 1 1)
	hex (10 11 15 14 106 107 119 118) (40 4 5) simpleGrading (2 1 1)
	hex (14 15 19 18 118 119 123 122) (40 5 5) simpleGrading (2 1 1)
	hex (18 19 23 22 122 123 127 126) (40 5 5) simpleGrading (2 1 1)
	hex (22 23 27 26 126 127 139 138) (40 4 5) simpleGrading (2 1 1)
	hex (26 27 31 30 138 139 143 142) (40 5 5) simpleGrading (2 1 1)
	hex (30 31 35 34 142 143 147 146) (40 5 5) simpleGrading (2 1 1)
	hex (34 35 39 38 146 147 159 158) (40 4 5) simpleGrading (2 1 1)
	hex (38 39 43 42 158 159 163 162) (40 5 5) simpleGrading (2 1 1)
	hex (42 43 47 46 162 163 167 166) (40 5 5) simpleGrading (2 1 1)
	hex (46 47 51 50 166 167 179 178) (40 4 5) simpleGrading (2 1 1)
	hex (50 51 55 54 178 179 183 182) (40 5 5) simpleGrading (2 1 1)
	hex (54 55 59 58 182 183 187 186) (40 5 5) simpleGrading (2 1 1)
	hex (58 59 63 62 186 187 199 198) (40 4 5) simpleGrading (2 1 1)
	hex (62 63 67 66 198 199 203 202) (40 5 5) simpleGrading (2 1 1)
	hex (66 67 71 70 202 203 207 206) (40 5 5) simpleGrading (2 1 1)
	hex (70 71 75 74 206 207 219 218) (40 4 5) simpleGrading (2 1 1)
	hex (74 75 79 78 218 219 223 222) (40 5 5) simpleGrading (2 1 1)
	hex (78 79 83 82 222 223 227 226) (40 5 5) simpleGrading (2 1 1)
	hex (82 83 87 86 226 227 239 238) (40 4 5) simpleGrading (2 1 1)
	hex (86 87 91 90 238 239 243 242) (40 5 5) simpleGrading (2 1 1)
	hex (90 91 95 94 242 243 247 246) (40 20 5) simpleGrading (2 1 1)

	hex (1 2 6 5 97 98 102 101) (4 20 5) simpleGrading (1 1 1)
	hex (89 90 94 93 241 242 246 245) (4 20 5) simpleGrading (1 1 1)

	hex (96 97 101 100 248 249 253 252) (20 20 160) simpleGrading (0.5 1 1)
	hex (100 101 105 104 252 253 257 256) (20 5 160) simpleGrading (0.5 1 1)
	hex (104 105 117 116 256 257 273 272) (20 4 160) simpleGrading (0.5 1 1)
	hex (116 117 121 120 272 273 277 276) (20 5 160) simpleGrading (0.5 1 1)
	hex (120 121 125 124 276 277 281 280) (20 5 160) simpleGrading (0.5 1 1)
	hex (124 125 137 136 280 281 297 296) (20 4 160) simpleGrading (0.5 1 1)
	hex (136 137 141 140 296 297 301 300) (20 5 160) simpleGrading (0.5 1 1)
	hex (140 141 145 144 300 301 305 304) (20 5 160) simpleGrading (0.5 1 1)
	hex (144 145 157 156 304 305 321 320) (20 4 160) simpleGrading (0.5 1 1)
	hex (156 157 161 160 320 321 325 324) (20 5 160) simpleGrading (0.5 1 1)
	hex (160 161 165 164 324 325 329 328) (20 5 160) simpleGrading (0.5 1 1)
	hex (164 165 177 176 328 329 345 344) (20 4 160) simpleGrading (0.5 1 1)
	hex (176 177 181 180 344 345 349 348) (20 5 160) simpleGrading (0.5 1 1)
	hex (180 181 185 184 348 349 353 352) (20 5 160) simpleGrading (0.5 1 1)
	hex (184 185 197 196 352 353 369 368) (20 4 160) simpleGrading (0.5 1 1)
	hex (196 197 201 200 368 369 373 372) (20 5 160) simpleGrading (0.5 1 1)
	hex (200 201 205 204 372 373 377 376) (20 5 160) simpleGrading (0.5 1 1)
	hex (204 205 217 216 376 377 393 392) (20 4 160) simpleGrading (0.5 1 1)
	hex (216 217 221 220 392 393 397 396) (20 5 160) simpleGrading (0.5 1 1)
	hex (220 221 225 224 396 397 401 400) (20 5 160) simpleGrading (0.5 1 1)
	hex (224 225 237 236 400 401 417 416) (20 4 160) simpleGrading (0.5 1 1)
	hex (236 237 241 240 416 417 421 420) (20 5 160) simpleGrading (0.5 1 1)
	hex (240 241 245 244 420 421 425 424) (20 20 160) simpleGrading (0.5 1 1)

	hex (98 99 103 102 250 251 255 254) (40 20 160) simpleGrading (2 1 1)
	hex (102 103 107 106 254 255 259 258) (40 5 160) simpleGrading (2 1 1)
	hex (106 107 119 118 258 259 275 274) (40 4 160) simpleGrading (2 1 1)
	hex (118 119 123 122 274 275 279 278) (40 5 160) simpleGrading (2 1 1)
	hex (122 123 127 126 278 279 283 282) (40 5 160) simpleGrading (2 1 1)
	hex (126 127 139 138 282 283 299 298) (40 4 160) simpleGrading (2 1 1)
	hex (138 139 143 142 298 299 303 302) (40 5 160) simpleGrading (2 1 1)
	hex (142 143 147 146 302 303 307 306) (40 5 160) simpleGrading (2 1 1)
	hex (146 147 159 158 306 307 323 322) (40 4 160) simpleGrading (2 1 1)
	hex (158 159 163 162 322 323 327 326) (40 5 160) simpleGrading (2 1 1)
	hex (162 163 167 166 326 327 331 330) (40 5 160) simpleGrading (2 1 1)
	hex (166 167 179 178 330 331 347 346) (40 4 160) simpleGrading (2 1 1)
	hex (178 179 183 182 346 347 351 350) (40 5 160) simpleGrading (2 1 1)
	hex (182 183 187 186 350 351 355 354) (40 5 160) simpleGrading (2 1 1)
	hex (186 187 199 198 354 355 371 370) (40 4 160) simpleGrading (2 1 1)
	hex (198 199 203 202 370 371 375 374) (40 5 160) simpleGrading (2 1 1)
	hex (202 203 207 206 374 375 379 378) (40 5 160) simpleGrading (2 1 1)
	hex (206 207 219 218 378 379 395 394) (40 4 160) simpleGrading (2 1 1)
	hex (218 219 223 222 394 395 399 398) (40 5 160) simpleGrading (2 1 1)
	hex (222 223 227 226 398 399 403 402) (40 5 160) simpleGrading (2 1 1)
	hex (226 227 239 238 402 403 419 418) (40 4 160) simpleGrading (2 1 1)
	hex (238 239 243 242 418 419 423 422) (40 5 160) simpleGrading (2 1 1)
	hex (242 243 247 246 422 423 427 426) (40 20 160) simpleGrading (2 1 1)

	hex (97 98 102 101 249 250 254 253) (4 20 160) simpleGrading (1 1 1)
	hex (241 242 246 245 421 422 426 425) (4 20 160) simpleGrading (1 1 1)

	hex (105 108 114 117 257 260 270 273) (2 4 160) simpleGrading (1 1 1)
	hex (106 109 108 105 258 261 260 257) (2 4 160) simpleGrading (1 1 1)
	hex (118 115 109 106 274 271 261 258) (2 4 160) simpleGrading (1 1 1)
	hex (117 114 115 118 273 270 271 274) (2 4 160) simpleGrading (1 1 1)
	hex (108 110 112 114 260 262 268 270) (3 4 160) simpleGrading (1 1 1)
	hex (109 111 110 108 261 263 262 260) (3 4 160) simpleGrading (1 1 1)
	hex (115 113 111 109 271 269 263 261) (3 4 160) simpleGrading (1 1 1)
	hex (114 112 113 115 270 268 269 271) (3 4 160) simpleGrading (1 1 1)
	hex (101 102 106 105 253 254 258 257) (4 5 160) simpleGrading (1 1 1)
	hex (117 118 122 121 273 274 278 277) (4 5 160) simpleGrading (1 1 1)
	hex (125 128 134 137 281 284 294 297) (2 4 160) simpleGrading (1 1 1)
	hex (126 129 128 125 282 285 284 281) (2 4 160) simpleGrading (1 1 1)
	hex (138 135 129 126 298 295 285 282) (2 4 160) simpleGrading (1 1 1)
	hex (137 134 135 138 297 294 295 298) (2 4 160) simpleGrading (1 1 1)
	hex (128 130 132 134 284 286 292 294) (3 4 160) simpleGrading (1 1 1)
	hex (129 131 130 128 285 287 286 284) (3 4 160) simpleGrading (1 1 1)
	hex (135 133 131 129 295 293 287 285) (3 4 160) simpleGrading (1 1 1)
	hex (134 132 133 135 294 292 293 295) (3 4 160) simpleGrading (1 1 1)
	hex (121 122 126 125 277 278 282 281) (4 5 160) simpleGrading (1 1 1)
	hex (137 138 142 141 297 298 302 301) (4 5 160) simpleGrading (1 1 1)
	hex (145 148 154 157 305 308 318 321) (2 4 160) simpleGrading (1 1 1)
	hex (146 149 148 145 306 309 308 305) (2 4 160) simpleGrading (1 1 1)
	hex (158 155 149 146 322 319 309 306) (2 4 160) simpleGrading (1 1 1)
	hex (157 154 155 158 321 318 319 322) (2 4 160) simpleGrading (1 1 1)
	hex (148 150 152 154 308 310 316 318) (3 4 160) simpleGrading (1 1 1)
	hex (149 151 150 148 309 311 310 308) (3 4 160) simpleGrading (1 1 1)
	hex (155 153 151 149 319 317 311 309) (3 4 160) simpleGrading (1 1 1)
	hex (154 152 153 155 318 316 317 319) (3 4 160) simpleGrading (1 1 1)
	hex (141 142 146 145 301 302 306 305) (4 5 160) simpleGrading (1 1 1)
	hex (157 158 162 161 321 322 326 325) (4 5 160) simpleGrading (1 1 1)
	hex (165 168 174 177 329 332 342 345) (2 4 160) simpleGrading (1 1 1)
	hex (166 169 168 165 330 333 332 329) (2 4 160) simpleGrading (1 1 1)
	hex (178 175 169 166 346 343 333 330) (2 4 160) simpleGrading (1 1 1)
	hex (177 174 175 178 345 342 343 346) (2 4 160) simpleGrading (1 1 1)
	hex (168 170 172 174 332 334 340 342) (3 4 160) simpleGrading (1 1 1)
	hex (169 171 170 168 333 335 334 332) (3 4 160) simpleGrading (1 1 1)
	hex (175 173 171 169 343 341 335 333) (3 4 160) simpleGrading (1 1 1)
	hex (174 172 173 175 342 340 341 343) (3 4 160) simpleGrading (1 1 1)
	hex (161 162 166 165 325 326 330 329) (4 5 160) simpleGrading (1 1 1)
	hex (177 178 182 181 345 346 350 349) (4 5 160) simpleGrading (1 1 1)
	hex (185 188 194 197 353 356 366 369) (2 4 160) simpleGrading (1 1 1)
	hex (186 189 188 185 354 357 356 353) (2 4 160) simpleGrading (1 1 1)
	hex (198 195 189 186 370 367 357 354) (2 4 160) simpleGrading (1 1 1)
	hex (197 194 195 198 369 366 367 370) (2 4 160) simpleGrading (1 1 1)
	hex (188 190 192 194 356 358 364 366) (3 4 160) simpleGrading (1 1 1)
	hex (189 191 190 188 357 359 358 356) (3 4 160) simpleGrading (1 1 1)
	hex (195 193 191 189 367 365 359 357) (3 4 160) simpleGrading (1 1 1)
	hex (194 192 193 195 366 364 365 367) (3 4 160) simpleGrading (1 1 1)
	hex (181 182 186 185 349 350 354 353) (4 5 160) simpleGrading (1 1 1)
	hex (197 198 202 201 369 370 374 373) (4 5 160) simpleGrading (1 1 1)
	hex (205 208 214 217 377 380 390 393) (2 4 160) simpleGrading (1 1 1)
	hex (206 209 208 205 378 381 380 377) (2 4 160) simpleGrading (1 1 1)
	hex (218 215 209 206 394 391 381 378) (2 4 160) simpleGrading (1 1 1)
	hex (217 214 215 218 393 390 391 394) (2 4 160) simpleGrading (1 1 1)
	hex (208 210 212 214 380 382 388 390) (3 4 160) simpleGrading (1 1 1)
	hex (209 211 210 208 381 383 382 380) (3 4 160) simpleGrading (1 1 1)
	hex (215 213 211 209 391 389 383 381) (3 4 160) simpleGrading (1 1 1)
	hex (214 212 213 215 390 388 389 391) (3 4 160) simpleGrading (1 1 1)
	hex (201 202 206 205 373 374 378 377) (4 5 160) simpleGrading (1 1 1)
	hex (217 218 222 221 393 394 398 397) (4 5 160) simpleGrading (1 1 1)
	hex (225 228 234 237 401 404 414 417) (2 4 160) simpleGrading (1 1 1)
	hex (226 229 228 225 402 405 404 401) (2 4 160) simpleGrading (1 1 1)
	hex (238 235 229 226 418 415 405 402) (2 4 160) simpleGrading (1 1 1)
	hex (237 234 235 238 417 414 415 418) (2 4 160) simpleGrading (1 1 1)
	hex (228 230 232 234 404 406 412 414) (3 4 160) simpleGrading (1 1 1)
	hex (229 231 230 228 405 407 406 404) (3 4 160) simpleGrading (1 1 1)
	hex (235 233 231 229 415 413 407 405) (3 4 160) simpleGrading (1 1 1)
	hex (234 232 233 235 414 412 413 415) (3 4 160) simpleGrading (1 1 1)
	hex (221 222 226 225 397 398 402 401) (4 5 160) simpleGrading (1 1 1)
	hex (237 238 242 241 417 418 422 421) (4 5 160) simpleGrading (1 1 1)

	hex (248 249 253 252 428 429 433 432) (20 20 80) simpleGrading (0.5 1 1)
	hex (252 253 257 256 432 433 437 436) (20 5 80) simpleGrading (0.5 1 1)
	hex (256 257 273 272 436 437 453 452) (20 4 80) simpleGrading (0.5 1 1)
	hex (272 273 277 276 452 453 457 456) (20 5 80) simpleGrading (0.5 1 1)
	hex (276 277 281 280 456 457 461 460) (20 5 80) simpleGrading (0.5 1 1)
	hex (280 281 297 296 460 461 477 476) (20 4 80) simpleGrading (0.5 1 1)
	hex (296 297 301 300 476 477 481 480) (20 5 80) simpleGrading (0.5 1 1)
	hex (300 301 305 304 480 481 485 484) (20 5 80) simpleGrading (0.5 1 1)
	hex (304 305 321 320 484 485 501 500) (20 4 80) simpleGrading (0.5 1 1)
	hex (320 321 325 324 500 501 505 504) (20 5 80) simpleGrading (0.5 1 1)
	hex (324 325 329 328 504 505 509 508) (20 5 80) simpleGrading (0.5 1 1)
	hex (328 329 345 344 508 509 525 524) (20 4 80) simpleGrading (0.5 1 1)
	hex (344 345 349 348 524 525 529 528) (20 5 80) simpleGrading (0.5 1 1)
	hex (348 349 353 352 528 529 533 532) (20 5 80) simpleGrading (0.5 1 1)