/*--------------------------------*- C++ -*----------------------------------*\
| =========                 |                                                 |
| \      /  F ield         | foam-extend: Open Source CFD                    |
|  \    /   O peration     | Version:     4.0                                |
|   \  /    A nd           | Web:         http://www.foam-extend.org         |
|    \/     M anipulation  |                                                 |
\*---------------------------------------------------------------------------*/
FoamFile
{
    version     2.0;
    format      ascii;
    class       dictionary;
    object      blockMeshDict;
}
// * * * * * * * * * * * * * * * * * * * * * * * * * * * * * * * * * * * * * //

convertToMeters 0.001;
vertices
(
	(0 0 0)      //0
	(92 0 0)      //1
	(108 0 0)      //2
	(200 0 0)      //3
	(0 94 0)      //4
	(92 94 0)      //5
	(108 94 0)      //6
	(200 94 0)      //7
	(0 110 0)      //8
	(92 110 0)      //9
	(108 110 0)      //10
	(200 110 0)      //11
	(0 126 0)      //12
	(92 126 0)      //13
	(108 126 0)      //14
	(200 126 0)      //15
	(0 142 0)      //16
	(92 142 0)      //17
	(108 142 0)      //18
	(200 142 0)      //19
	(0 158 0)      //20
	(92 158 0)      //21
	(108 158 0)      //22
	(200 158 0)      //23
	(0 174 0)      //24
	(92 174 0)      //25
	(108 174 0)      //26
	(200 174 0)      //27
	(0 190 0)      //28
	(92 190 0)      //29
	(108 190 0)      //30
	(200 190 0)      //31
	(0 206 0)      //32
	(92 206 0)      //33
	(108 206 0)      //34
	(200 206 0)      //35
	(0 300 0)      //36
	(92 300 0)      //37
	(108 300 0)      //38
	(200 300 0)      //39
	(0 0 1)      //40
	(92 0 1)      //41
	(108 0 1)      //42
	(200 0 1)      //43
	(0 94 1)      //44
	(92 94 1)      //45
	(108 94 1)      //46
	(200 94 1)      //47
	(99.6464 101.6464 1)      //48
	(100.3536 101.6464 1)      //49
	(99.6464 102.3536 1)      //50
	(100.3536 102.3536 1)      //51
	(0 110 1)      //52
	(92 110 1)      //53
	(108 110 1)      //54
	(200 110 1)      //55
	(99.6464 117.6464 1)      //56
	(100.3536 117.6464 1)      //57
	(99.6464 118.3536 1)      //58
	(100.3536 118.3536 1)      //59
	(0 126 1)      //60
	(92 126 1)      //61
	(108 126 1)      //62
	(200 126 1)      //63
	(99.6464 133.6464 1)      //64
	(100.3536 133.6464 1)      //65
	(99.6464 134.3536 1)      //66
	(100.3536 134.3536 1)      //67
	(0 142 1)      //68
	(92 142 1)      //69
	(108 142 1)      //70
	(200 142 1)      //71
	(99.6464 149.6464 1)      //72
	(100.3536 149.6464 1)      //73
	(99.6464 150.3536 1)      //74
	(100.3536 150.3536 1)      //75
	(0 158 1)      //76
	(92 158 1)      //77
	(108 158 1)      //78
	(200 158 1)      //79
	(99.6464 165.6464 1)      //80
	(100.3536 165.6464 1)      //81
	(99.6464 166.3536 1)      //82
	(100.3536 166.3536 1)      //83
	(0 174 1)      //84
	(92 174 1)      //85
	(108 174 1)      //86
	(200 174 1)      //87
	(99.6464 181.6464 1)      //88
	(100.3536 181.6464 1)      //89
	(99.6464 182.3536 1)      //90
	(100.3536 182.3536 1)      //91
	(0 190 1)      //92
	(92 190 1)      //93
	(108 190 1)      //94
	(200 190 1)      //95
	(99.6464 197.6464 1)      //96
	(100.3536 197.6464 1)      //97
	(99.6464 198.3536 1)      //98
	(100.3536 198.3536 1)      //99
	(0 206 1)      //100
	(92 206 1)      //101
	(108 206 1)      //102
	(200 206 1)      //103
	(0 300 1)      //104
	(92 300 1)      //105
	(108 300 1)      //106
	(200 300 1)      //107
	(0 0 101)      //108
	(92 0 101)      //109
	(108 0 101)      //110
	(200 0 101)      //111
	(0 94 101)      //112
	(92 94 101)      //113
	(108 94 101)      //114
	(200 94 101)      //115
	(99.6464 101.6464 101)      //116
	(100.3536 101.6464 101)      //117
	(99.8232 101.8232 101)      //118
	(100.1768 101.8232 101)      //119
	(99.8232 102.1768 101)      //120
	(100.1768 102.1768 101)      //121
	(99.6464 102.3536 101)      //122
	(100.3536 102.3536 101)      //123
	(0 110 101)      //124
	(92 110 101)      //125
	(108 110 101)      //126
	(200 110 101)      //127
	(99.6464 117.6464 101)      //128
	(100.3536 117.6464 101)      //129
	(99.8232 117.8232 101)      //130
	(100.1768 117.8232 101)      //131
	(99.8232 118.1768 101)      //132
	(100.1768 118.1768 101)      //133
	(99.6464 118.3536 101)      //134
	(100.3536 118.3536 101)      //135
	(0 126 101)      //136
	(92 126 101)      //137
	(108 126 101)      //138
	(200 126 101)      //139
	(99.6464 133.6464 101)      //140
	(100.3536 133.6464 101)      //141
	(99.8232 133.8232 101)      //142
	(100.1768 133.8232 101)      //143
	(99.8232 134.1768 101)      //144
	(100.1768 134.1768 101)      //145
	(99.6464 134.3536 101)      //146
	(100.3536 134.3536 101)      //147
	(0 142 101)      //148
	(92 142 101)      //149
	(108 142 101)      //150
	(200 142 101)      //151
	(99.6464 149.6464 101)      //152
	(100.3536 149.6464 101)      //153
	(99.8232 149.8232 101)      //154
	(100.1768 149.8232 101)      //155
	(99.8232 150.1768 101)      //156
	(100.1768 150.1768 101)      //157
	(99.6464 150.3536 101)      //158
	(100.3536 150.3536 101)      //159
	(0 158 101)      //160
	(92 158 101)      //161
	(108 158 101)      //162
	(200 158 101)      //163
	(99.6464 165.6464 101)      //164
	(100.3536 165.6464 101)      //165
	(99.8232 165.8232 101)      //166
	(100.1768 165.8232 101)      //167
	(99.8232 166.1768 101)      //168
	(100.1768 166.1768 101)      //169
	(99.6464 166.3536 101)      //170
	(100.3536 166.3536 101)      //171
	(0 174 101)      //172
	(92 174 101)      //173
	(108 174 101)      //174
	(200 174 101)      //175
	(99.6464 181.6464 101)      //176
	(100.3536 181.6464 101)      //177
	(99.8232 181.8232 101)      //178
	(100.1768 181.8232 101)      //179
	(99.8232 182.1768 101)      //180
	(100.1768 182.1768 101)      //181
	(99.6464 182.3536 101)      //182
	(100.3536 182.3536 101)      //183
	(0 190 101)      //184
	(92 190 101)      //185
	(108 190 101)      //186
	(200 190 101)      //187
	(99.6464 197.6464 101)      //188
	(100.3536 197.6464 101)      //189
	(99.8232 197.8232 101)      //190
	(100.1768 197.8232 101)      //191
	(99.8232 198.1768 101)      //192
	(100.1768 198.1768 101)      //193
	(99.6464 198.3536 101)      //194
	(100.3536 198.3536 101)      //195
	(0 206 101)      //196
	(92 206 101)      //197
	(108 206 101)      //198
	(200 206 101)      //199
	(0 300 101)      //200
	(92 300 101)      //201
	(108 300 101)      //202
	(200 300 101)      //203
	(0 0 201)      //204
	(92 0 201)      //205
	(108 0 201)      //206
	(200 0 201)      //207
	(0 94 201)      //208
	(92 94 201)      //209
	(108 94 201)      //210
	(200 94 201)      //211
	(99.6464 101.6464 201)      //212
	(100.3536 101.6464 201)      //213
	(99.8232 101.8232 201)      //214
	(100.1768 101.8232 201)      //215
	(99.8232 102.1768 201)      //216
	(100.1768 102.1768 201)      //217
	(99.6464 102.3536 201)      //218
	(100.3536 102.3536 201)      //219
	(0 110 201)      //220
	(92 110 201)      //221
	(108 110 201)      //222
	(200 110 201)      //223
	(99.6464 117.6464 201)      //224
	(100.3536 117.6464 201)      //225
	(99.8232 117.8232 201)      //226
	(100.1768 117.8232 201)      //227
	(99.8232 118.1768 201)      //228
	(100.1768 118.1768 201)      //229
	(99.6464 118.3536 201)      //230
	(100.3536 118.3536 201)      //231
	(0 126 201)      //232
	(92 126 201)      //233
	(108 126 201)      //234
	(200 126 201)      //235
	(99.6464 133.6464 201)      //236
	(100.3536 133.6464 201)      //237
	(99.8232 133.8232 201)      //238
	(100.1768 133.8232 201)      //239
	(99.8232 134.1768 201)      //240
	(100.1768 134.1768 201)      //241
	(99.6464 134.3536 201)      //242
	(100.3536 134.3536 201)      //243
	(0 142 201)      //244
	(92 142 201)      //245
	(108 142 201)      //246
	(200 142 201)      //247
	(99.6464 149.6464 201)      //248
	(100.3536 149.6464 201)      //249
	(99.8232 149.8232 201)      //250
	(100.1768 149.8232 201)      //251
	(99.8232 150.1768 201)      //252
	(100.1768 150.1768 201)      //253
	(99.6464 150.3536 201)      //254
	(100.3536 150.3536 201)      //255
	(0 158 201)      //256
	(92 158 201)      //257
	(108 158 201)      //258
	(200 158 201)      //259
	(99.6464 165.6464 201)      //260
	(100.3536 165.6464 201)      //261
	(99.8232 165.8232 201)      //262
	(100.1768 165.8232 201)      //263
	(99.8232 166.1768 201)      //264
	(100.1768 166.1768 201)      //265
	(99.6464 166.3536 201)      //266
	(100.3536 166.3536 201)      //267
	(0 174 201)      //268
	(92 174 201)      //269
	(108 174 201)      //270
	(200 174 201)      //271
	(99.6464 181.6464 201)      //272
	(100.3536 181.6464 201)      //273
	(99.8232 181.8232 201)      //274
	(100.1768 181.8232 201)      //275
	(99.8232 182.1768 201)      //276
	(100.1768 182.1768 201)      //277
	(99.6464 182.3536 201)      //278
	(100.3536 182.3536 201)      //279
	(0 190 201)      //280
	(92 190 201)      //281
	(108 190 201)      //282
	(200 190 201)      //283
	(99.6464 197.6464 201)      //284
	(100.3536 197.6464 201)      //285
	(99.8232 197.8232 201)      //286
	(100.1768 197.8232 201)      //287
	(99.8232 198.1768 201)      //288
	(100.1768 198.1768 201)      //289
	(99.6464 198.3536 201)      //290
	(100.3536 198.3536 201)      //291
	(0 206 201)      //292
	(92 206 201)      //293
	(108 206 201)      //294
	(200 206 201)      //295
	(0 300 201)      //296
	(92 300 201)      //297
	(108 300 201)      //298
	(200 300 201)      //299

);

blocks
(
	hex (0 1 5 4 40 41 45 44) (20 15 1) simpleGrading (0.1 0.1 1)
	hex (4 5 9 8 44 45 53 52) (20 9 1) simpleGrading (0.1 1 1)
	hex (8 9 13 12 52 53 61 60) (20 9 1) simpleGrading (0.1 1 1)
	hex (12 13 17 16 60 61 69 68) (20 9 1) simpleGrading (0.1 1 1)
	hex (16 17 21 20 68 69 77 76) (20 9 1) simpleGrading (0.1 1 1)
	hex (20 21 25 24 76 77 85 84) (20 9 1) simpleGrading (0.1 1 1)
	hex (24 25 29 28 84 85 93 92) (20 9 1) simpleGrading (0.1 1 1)
	hex (28 29 33 32 92 93 101 100) (20 9 1) simpleGrading (0.1 1 1)
	hex (32 33 37 36 100 101 105 104) (20 15 1) simpleGrading (0.1 10 1)

	hex (2 3 7 6 42 43 47 46) (20 15 1) simpleGrading (10 0.1 1)
	hex (6 7 11 10 46 47 55 54) (20 9 1) simpleGrading (10 1 1)
	hex (10 11 15 14 54 55 63 62) (20 9 1) simpleGrading (10 1 1)
	hex (14 15 19 18 62 63 71 70) (20 9 1) simpleGrading (10 1 1)
	hex (18 19 23 22 70 71 79 78) (20 9 1) simpleGrading (10 1 1)
	hex (22 23 27 26 78 79 87 86) (20 9 1) simpleGrading (10 1 1)
	hex (26 27 31 30 86 87 95 94) (20 9 1) simpleGrading (10 1 1)
	hex (30 31 35 34 94 95 103 102) (20 9 1) simpleGrading (10 1 1)
	hex (34 35 39 38 102 103 107 106) (20 15 1) simpleGrading (10 10 1)

	hex (1 2 6 5 41 42 46 45) (9 15 1) simpleGrading (1 0.1 1)
	hex (33 34 38 37 101 102 106 105) (9 15 1) simpleGrading (1 10 1)

	hex (40 41 45 44 108 109 113 112) (20 15 100) simpleGrading (0.1 0.1 1)
	hex (44 45 53 52 112 113 125 124) (20 9 100) simpleGrading (0.1 1 1)
	hex (52 53 61 60 124 125 137 136) (20 9 100) simpleGrading (0.1 1 1)
	hex (60 61 69 68 136 137 149 148) (20 9 100) simpleGrading (0.1 1 1)
	hex (68 69 77 76 148 149 161 160) (20 9 100) simpleGrading (0.1 1 1)
	hex (76 77 85 84 160 161 173 172) (20 9 100) simpleGrading (0.1 1 1)
	hex (84 85 93 92 172 173 185 184) (20 9 100) simpleGrading (0.1 1 1)
	hex (92 93 101 100 184 185 197 196) (20 9 100) simpleGrading (0.1 1 1)
	hex (100 101 105 104 196 197 201 200) (20 15 100) simpleGrading (0.1 10 1)

	hex (42 43 47 46 110 111 115 114) (20 15 100) simpleGrading (10 0.1 1)
	hex (46 47 55 54 114 115 127 126) (20 9 100) simpleGrading (10 1 1)
	hex (54 55 63 62 126 127 139 138) (20 9 100) simpleGrading (10 1 1)
	hex (62 63 71 70 138 139 151 150) (20 9 100) simpleGrading (10 1 1)
	hex (70 71 79 78 150 151 163 162) (20 9 100) simpleGrading (10 1 1)
	hex (78 79 87 86 162 163 175 174) (20 9 100) simpleGrading (10 1 1)
	hex (86 87 95 94 174 175 187 186) (20 9 100) simpleGrading (10 1 1)
	hex (94 95 103 102 186 187 199 198) (20 9 100) simpleGrading (10 1 1)
	hex (102 103 107 106 198 199 203 202) (20 15 100) simpleGrading (10 10 1)

	hex (41 42 46 45 109 110 114 113) (9 15 100) simpleGrading (1 0.1 1)
	hex (101 102 106 105 197 198 202 201) (9 15 100) simpleGrading (1 10 1)

	hex (45 48 50 53 113 116 122 125) (9 9 100) simpleGrading (0.5 1 1)
	hex (46 49 48 45 114 117 116 113) (9 9 100) simpleGrading (0.5 1 1)
	hex (54 51 49 46 126 123 117 114) (9 9 100) simpleGrading (0.5 1 1)
	hex (53 50 51 54 125 122 123 126) (9 9 100) simpleGrading (0.5 1 1)
	hex (53 56 58 61 125 128 134 137) (9 9 100) simpleGrading (0.5 1 1)
	hex (54 57 56 53 126 129 128 125) (9 9 100) simpleGrading (0.5 1 1)
	hex (62 59 57 54 138 135 129 126) (9 9 100) simpleGrading (0.5 1 1)
	hex (61 58 59 62 137 134 135 138) (9 9 100) simpleGrading (0.5 1 1)
	hex (61 64 66 69 137 140 146 149) (9 9 100) simpleGrading (0.5 1 1)
	hex (62 65 64 61 138 141 140 137) (9 9 100) simpleGrading (0.5 1 1)
	hex (70 67 65 62 150 147 141 138) (9 9 100) simpleGrading (0.5 1 1)
	hex (69 66 67 70 149 146 147 150) (9 9 100) simpleGrading (0.5 1 1)
	hex (69 72 74 77 149 152 158 161) (9 9 100) simpleGrading (0.5 1 1)
	hex (70 73 72 69 150 153 152 149) (9 9 100) simpleGrading (0.5 1 1)
	hex (78 75 73 70 162 159 153 150) (9 9 100) simpleGrading (0.5 1 1)
	hex (77 74 75 78 161 158 159 162) (9 9 100) simpleGrading (0.5 1 1)
	hex (77 80 82 85 161 164 170 173) (9 9 100) simpleGrading (0.5 1 1)
	hex (78 81 80 77 162 165 164 161) (9 9 100) simpleGrading (0.5 1 1)
	hex (86 83 81 78 174 171 165 162) (9 9 100) simpleGrading (0.5 1 1)
	hex (85 82 83 86 173 170 171 174) (9 9 100) simpleGrading (0.5 1 1)
	hex (85 88 90 93 173 176 182 185) (9 9 100) simpleGrading (0.5 1 1)
	hex (86 89 88 85 174 177 176 173) (9 9 100) simpleGrading (0.5 1 1)
	hex (94 91 89 86 186 183 177 174) (9 9 100) simpleGrading (0.5 1 1)
	hex (93 90 91 94 185 182 183 186) (9 9 100) simpleGrading (0.5 1 1)
	hex (93 96 98 101 185 188 194 197) (9 9 100) simpleGrading (0.5 1 1)
	hex (94 97 96 93 186 189 188 185) (9 9 100) simpleGrading (0.5 1 1)
	hex (102 99 97 94 198 195 189 186) (9 9 100) simpleGrading (0.5 1 1)
	hex (101 98 99 102 197 194 195 198) (9 9 100) simpleGrading (0.5 1 1)

	hex (108 109 113 112 204 205 209 208) (20 15 20) simpleGrading (0.1 0.1 10)
	hex (112 113 125 124 208 209 221 220) (20 9 20) simpleGrading (0.1 1 10)
	hex (124 125 137 136 220 221 233 232) (20 9 20) simpleGrading (0.1 1 10)
	hex (136 137 149 148 232 233 245 244) (20 9 20) simpleGrading (0.1 1 10)
	hex (148 149 161 160 244 245 257 256) (20 9 20) simpleGrading (0.1 1 10)
	hex (160 161 173 172 256 257 269 268) (20 9 20) simpleGrading (0.1 1 10)
	hex (172 173 185 184 268 269 281 280) (20 9 20) simpleGrading (0.1 1 10)
	hex (184 185 197 196 280 281 293 292) (20 9 20) simpleGrading (0.1 1 10)
	hex (196 197 201 200 292 293 297 296) (20 15 20) simpleGrading (0.1 10 10)

	hex (110 111 115 114 206 207 211 210) (20 15 20) simpleGrading (10 0.1 10)
	hex (114 115 127 126 210 211 223 222) (20 9 20) simpleGrading (10 1 10)
	hex (126 127 139 138 222 223 235 234) (20 9 20) simpleGrading (10 1 10)
	hex (138 139 151 150 234 235 247 246) (20 9 20) simpleGrading (10 1 10)
	hex (150 151 163 162 246 247 259 258) (20 9 20) simpleGrading (10 1 10)
	hex (162 163 175 174 258 259 271 270) (20 9 20) simpleGrading (10 1 10)
	hex (174 175 187 186 270 271 283 282) (20 9 20) simpleGrading (10 1 10)
	hex (186 187 199 198 282 283 295 294) (20 9 20) simpleGrading (10 1 10)
	hex (198 199 203 202 294 295 299 298) (20 15 20) simpleGrading (10 10 10)

	hex (109 110 114 113 205 206 210 209) (9 15 20) simpleGrading (1 0.1 10)
	hex (197 198 202 201 293 294 298 297) (9 15 20) simpleGrading (1 10 10)

	hex (113 116 122 125 209 212 218 221) (9 9 20) simpleGrading (0.5 1 10)
	hex (114 117 116 113 210 213 212 209) (9 9 20) simpleGrading (0.5 1 10)
	hex (126 123 117 114 222 219 213 210) (9 9 20) simpleGrading (0.5 1 10)
	hex (125 122 123 126 221 218 219 222) (9 9 20) simpleGrading (0.5 1 10)
	hex (125 128 134 137 221 224 230 233) (9 9 20) simpleGrading (0.5 1 10)
	hex (126 129 128 125 222 225 224 221) (9 9 20) simpleGrading (0.5 1 10)
	hex (138 135 129 126 234 231 225 222) (9 9 20) simpleGrading (0.5 1 10)
	hex (137 134 135 138 233 230 231 234) (9 9 20) simpleGrading (0.5 1 10)
	hex (137 140 146 149 233 236 242 245) (9 9 20) simpleGrading (0.5 1 10)
	hex (138 141 140 137 234 237 236 233) (9 9 20) simpleGrading (0.5 1 10)
	hex (150 147 141 138 246 243 237 234) (9 9 20) simpleGrading (0.5 1 10)
	hex (149 146 147 150 245 242 243 246) (9 9 20) simpleGrading (0.5 1 10)
	hex (149 152 158 161 245 248 254 257) (9 9 20) simpleGrading (0.5 1 10)
	hex (150 153 152 149 246 249 248 245) (9 9 20) simpleGrading (0.5 1 10)
	hex (162 159 153 150 258 255 249 246) (9 9 20) simpleGrading (0.5 1 10)
	hex (161 158 159 162 257 254 255 258) (9 9 20) simpleGrading (0.5 1 10)
	hex (161 164 170 173 257 260 266 269) (9 9 20) simpleGrading (0.5 1 10)
	hex (162 165 164 161 258 261 260 257) (9 9 20) simpleGrading (0.5 1 10)
	hex (174 171 165 162 270 267 261 258) (9 9 20) simpleGrading (0.5 1 10)
	hex (173 170 171 174 269 266 267 270) (9 9 20) simpleGrading (0.5 1 10)
	hex (173 176 182 185 269 272 278 281) (9 9 20) simpleGrading (0.5 1 10)
	hex (174 177 176 173 270 273 272 269) (9 9 20) simpleGrading (0.5 1 10)
	hex (186 183 177 174 282 279 273 270) (9 9 20) simpleGrading (0.5 1 10)
	hex (185 182 183 186 281 278 279 282) (9 9 20) simpleGrading (0.5 1 10)
	hex (185 188 194 197 281 284 290 293) (9 9 20) simpleGrading (0.5 1 10)
	hex (186 189 188 185 282 285 284 281) (9 9 20) simpleGrading (0.5 1 10)
	hex (198 195 189 186 294 291 285 282) (9 9 20) simpleGrading (0.5 1 10)
	hex (197 194 195 198 293 290 291 294) (9 9 20) simpleGrading (0.5 1 10)

	hex (118 119 121 120 214 215 217 216) (9 9 20) simpleGrading (1 1 10)
	hex (116 118 120 122 212 214 216 218) (2 9 20) simpleGrading (1 1 10)
	hex (117 119 118 116 213 215 214 212) (2 9 20) simpleGrading (1 1 10)
	hex (123 121 119 117 219 217 215 213) (2 9 20) simpleGrading (1 1 10)
	hex (122 120 121 123 218 216 217 219) (2 9 20) simpleGrading (1 1 10)
	hex (130 131 133 132 226 227 229 228) (9 9 20) simpleGrading (1 1 10)
	hex (128 130 132 134 224 226 228 230) (2 9 20) simpleGrading (1 1 10)
	hex (129 131 130 128 225 227 226 224) (2 9 20) simpleGrading (1 1 10)
	hex (135 133 131 129 231 229 227 225) (2 9 20) simpleGrading (1 1 10)
	hex (134 132 133 135 230 228 229 231) (2 9 20) simpleGrading (1 1 10)
	hex (142 143 145 144 238 239 241 240) (9 9 20) simpleGrading (1 1 10)
	hex (140 142 144 146 236 238 240 242) (2 9 20) simpleGrading (1 1 10)
	hex (141 143 142 140 237 239 238 236) (2 9 20) simpleGrading (1 1 10)
	hex (147 145 143 141 243 241 239 237) (2 9 20) simpleGrading (1 1 10)
	hex (146 144 145 147 242 240 241 243) (2 9 20) simpleGrading (1 1 10)
	hex (154 155 157 156 250 251 253 252) (9 9 20) simpleGrading (1 1 10)
	hex (152 154 156 158 248 250 252 254) (2 9 20) simpleGrading (1 1 10)
	hex (153 155 154 152 249 251 250 248) (2 9 20) simpleGrading (1 1 10)
	hex (159 157 155 153 255 253 251 249) (2 9 20) simpleGrading (1 1 10)
	hex (158 156 157 159 254 252 253 255) (2 9 20) simpleGrading (1 1 10)
	hex (166 167 169 168 262 263 265 264) (9 9 20) simpleGrading (1 1 10)
	hex (164 166 168 170 260 262 264 266) (2 9 20) simpleGrading (1 1 10)
	hex (165 167 166 164 261 263 262 260) (2 9 20) simpleGrading (1 1 10)
	hex (171 169 167 165 267 265 263 261) (2 9 20) simpleGrading (1 1 10)
	hex (170 168 169 171 266 264 265 267) (2 9 20) simpleGrading (1 1 10)
	hex (178 179 181 180 274 275 277 276) (9 9 20) simpleGrading (1 1 10)
	hex (176 178 180 182 272 274 276 278) (2 9 20) simpleGrading (1 1 10)
	hex (177 179 178 176 273 275 274 272) (2 9 20) simpleGrading (1 1 10)
	hex (183 181 179 177 279 277 275 273) (2 9 20) simpleGrading (1 1 10)
	hex (182 180 181 183 278 276 277 279) (2 9 20) simpleGrading (1 1 10)
	hex (190 191 193 192 286 287 289 288) (9 9 20) simpleGrading (1 1 10)
	hex (188 190 192 194 284 286 288 290) (2 9 20) simpleGrading (1 1 10)
	hex (189 191 190 188 285 287 286 284) (2 9 20) simpleGrading (1 1 10)
	hex (195 193 191 189 291 289 287 285) (2 9 20) simpleGrading (1 1 10)
	hex (194 192 193 195 290 288 289 291) (2 9 20) simpleGrading (1 1 10)

);

edges
(
	arc 48 49 (100.0 101.5 1)
	arc 49 51 (100.5 102.0 1)
	arc 51 50 (100.0 102.5 1)
	arc 50 48 (99.5 102.0 1)
	arc 56 57 (100.0 117.5 1)
	arc 57 59 (100.5 118.0 1)
	arc 59 58 (100.0 118.5 1)
	arc 58 56 (99.5 118.0 1)
	arc 64 65 (100.0 133.5 1)
	arc 65 67 (100.5 134.0 1)
	arc 67 66 (100.0 134.5 1)
	arc 66 64 (99.5 134.0 1)
	arc 72 73 (100.0 149.5 1)
	arc 73 75 (100.5 150.0 1)
	arc 75 74 (100.0 150.5 1)
	arc 74 72 (99.5 150.0 1)
	arc 80 81 (100.0 165.5 1)
	arc 81 83 (100.5 166.0 1)
	arc 83 82 (100.0 166.5 1)
	arc 82 80 (99.5 166.0 1)
	arc 88 89 (100.0 181.5 1)
	arc 89 91 (100.5 182.0 1)
	arc 91 90 (100.0 182.5 1)
	arc 90 88 (99.5 182.0 1)
	arc 96 97 (100.0 197.5 1)
	arc 97 99 (100.5 198.0 1)
	arc 99 98 (100.0 198.5 1)
	arc 98 96 (99.5 198.0 1)

	arc 116 117 (100.0 101.5 101)
	arc 117 123 (100.5 102.0 101)
	arc 123 122 (100.0 102.5 101)
	arc 122 116 (99.5 102.0 101)
	arc 128 129 (100.0 117.5 101)
	arc 129 135 (100.5 118.0 101)
	arc 135 134 (100.0 118.5 101)
	arc 134 128 (99.5 118.0 101)
	arc 140 141 (100.0 133.5 101)
	arc 141 147 (100.5 134.0 101)
	arc 147 146 (100.0 134.5 101)
	arc 146 140 (99.5 134.0 101)
	arc 152 153 (100.0 149.5 101)
	arc 153 159 (100.5 150.0 101)
	arc 159 158 (100.0 150.5 101)
	arc 158 152 (99.5 150.0 101)
	arc 164 165 (100.0 165.5 101)
	arc 165 171 (100.5 166.0 101)
	arc 171 170 (100.0 166.5 101)
	arc 170 164 (99.5 166.0 101)
	arc 176 177 (100.0 181.5 101)
	arc 177 183 (100.5 182.0 101)
	arc 183 182 (100.0 182.5 101)
	arc 182 176 (99.5 182.0 101)
	arc 188 189 (100.0 197.5 101)
	arc 189 195 (100.5 198.0 101)
	arc 195 194 (100.0 198.5 101)
	arc 194 188 (99.5 198.0 101)

	arc 212 213 (100.0 101.5 201)
	arc 213 219 (100.5 102.0 201)
	arc 219 218 (100.0 102.5 201)
	arc 218 212 (99.5 102.0 201)
	arc 224 225 (100.0 117.5 201)
	arc 225 231 (100.5 118.0 201)
	arc 231 230 (100.0 118.5 201)
	arc 230 224 (99.5 118.0 201)
	arc 236 237 (100.0 133.5 201)
	arc 237 243 (100.5 134.0 201)
	arc 243 242 (100.0 134.5 201)
	arc 242 236 (99.5 134.0 201)
	arc 248 249 (100.0 149.5 201)
	arc 249 255 (100.5 150.0 201)
	arc 255 254 (100.0 150.5 201)
	arc 254 248 (99.5 150.0 201)
	arc 260 261 (100.0 165.5 201)
	arc 261 267 (100.5 166.0 201)
	arc 267 266 (100.0 166.5 201)
	arc 266 260 (99.5 166.0 201)
	arc 272 273 (100.0 181.5 201)
	arc 273 279 (100.5 182.0 201)
	arc 279 278 (100.0 182.5 201)
	arc 278 272 (99.5 182.0 201)
	arc 284 285 (100.0 197.5 201)
	arc 285 291 (100.5 198.0 201)
	arc 291 290 (100.0 198.5 201)
	arc 290 284 (99.5 198.0 201)
);

patches
(
	patch bottom
	(
		(4 5 1 0)
		(5 6 2 1)
		(6 7 3 2)
		(8 9 5 4)
		(10 11 7 6)
		(12 13 9 8)
		(14 15 11 10)
		(16 17 13 12)
		(18 19 15 14)
		(20 21 17 16)
		(22 23 19 18)
		(24 25 21 20)
		(26 27 23 22)
		(28 29 25 24)
		(30 31 27 26)
		(32 33 29 28)
		(34 35 31 30)
		(36 37 33 32)
		(37 38 34 33)
		(38 39 35 34)
	)

	patch top
	(
		(204 205 209 208)
		(208 209 221 220)
		(220 221 233 232)
		(232 233 245 244)
		(244 245 257 256)
		(256 257 269 268)
		(268 269 281 280)
		(280 281 293 292)
		(292 293 297 296)
		(206 207 211 210)
		(210 211 223 222)
		(222 223 235 234)
		(234 235 247 246)
		(246 247 259 258)
		(258 259 271 270)
		(270 271 283 282)
		(282 283 295 294)
		(294 295 299 298)
		(205 206 210 209)
		(293 294 298 297)
		(209 212 218 221)
		(210 213 212 209)
		(222 219 213 210)
		(221 218 219 222)
		(221 224 230 233)
		(222 225 224 221)
		(234 231 225 222)
		(233 230 231 234)
		(233 236 242 245)
		(234 237 236 233)
		(246 243 237 234)
		(245 242 243 246)
		(245 248 254 257)
		(246 249 248 245)
		(258 255 249 246)
		(257 254 255 258)
		(257 260 266 269)
		(258 261 260 257)
		(270 267 261 258)
		(269 266 267 270)
		(269 272 278 281)
		(270 273 272 269)
		(282 279 273 270)
		(281 278 279 282)
		(281 284 290 293)
		(282 285 284 281)
		(294 291 285 282)
		(293 290 291 294)
		(214 215 217 216)
		(212 214 216 218)
		(213 215 214 212)
		(219 217 215 213)
		(218 216 217 219)
		(226 227 229 228)
		(224 226 228 230)
		(225 227 226 224)
		(231 229 227 225)
		(230 228 229 231)
		(238 239 241 240)
		(236 238 240 242)
		(237 239 238 236)
		(243 241 239 237)
		(242 240 241 243)
		(250 251 253 252)
		(248 250 252 254)
		(249 251 250 248)
		(255 253 251 249)
		(254 252 253 255)
		(262 263 265 264)
		(260 262 264 266)
		(261 263 262 260)
		(267 265 263 261)
		(266 264 265 267)
		(274 275 277 276)
		(272 274 276 278)
		(273 275 274 272)
		(279 277 275 273)
		(278 276 277 279)
		(286 287 289 288)
		(284 286 288 290)
		(285 287 286 284)
		(291 289 287 285)
		(290 288 289 291)
	)

	patch inlet
	(
		(40 44 4 0)
		(108 112 44 40)
		(204 208 112 108)
		(44 52 8 4)
		(112 124 52 44)
		(208 220 124 112)
		(52 60 12 8)
		(124 136 60 52)
		(220 232 136 124)
		(60 68 16 12)
		(136 148 68 60)
		(232 244 148 136)
		(68 76 20 16)
		(148 160 76 68)
		(244 256 160 148)
		(76 84 24 20)
		(160 172 84 76)
		(256 268 172 160)
		(84 92 28 24)
		(172 184 92 84)
		(268 280 184 172)
		(92 100 32 28)
		(184 196 100 92)
		(280 292 196 184)
		(100 104 36 32)
		(196 200 104 100)
		(292 296 200 196)
	)

	patch outlet
	(
		(3 7 47 43)
		(43 47 115 111)
		(111 115 211 207)
		(7 11 55 47)
		(47 55 127 115)
		(115 127 223 211)
		(11 15 63 55)
		(55 63 139 127)
		(127 139 235 223)
		(15 19 71 63)
		(63 71 151 139)
		(139 151 247 235)
		(19 23 79 71)
		(71 79 163 151)
		(151 163 259 247)
		(23 27 87 79)
		(79 87 175 163)
		(163 175 271 259)
		(27 31 95 87)
		(87 95 187 175)
		(175 187 283 271)
		(31 35 103 95)
		(95 103 199 187)
		(187 199 295 283)
		(35 39 107 103)
		(103 107 203 199)
		(199 203 299 295)
	)

	patch bristle
	(
		(9 53 45 5)
		(10 54 46 6)
		(13 61 53 9)
		(14 62 54 10)
		(17 69 61 13)
		(18 70 62 14)
		(21 77 69 17)
		(22 78 70 18)
		(25 85 77 21)
		(26 86 78 22)
		(29 93 85 25)
		(30 94 86 26)
		(33 101 93 29)
		(34 102 94 30)
		(5 45 46 6)
		(34 102 101 33)
		(53 50 48 45)
		(45 48 49 46)
		(46 49 51 54)
		(54 51 50 53)
		(61 58 56 53)
		(53 56 57 54)
		(54 57 59 62)
		(62 59 58 61)
		(69 66 64 61)
		(61 64 65 62)
		(62 65 67 70)
		(70 67 66 69)
		(77 74 72 69)
		(69 72 73 70)
		(70 73 75 78)
		(78 75 74 77)
		(85 82 80 77)
		(77 80 81 78)
		(78 81 83 86)
		(86 83 82 85)
		(93 90 88 85)
		(85 88 89 86)
		(86 89 91 94)
		(94 91 90 93)
		(101 98 96 93)
		(93 96 97 94)
		(94 97 99 102)
		(102 99 98 101)
		(120 121 119 118)
		(122 120 118 116)
		(116 118 119 117)
		(117 119 121 123)
		(123 121 120 122)
		(50 122 116 48)
		(48 116 117 49)
		(49 117 123 51)
		(51 123 122 50)
		(132 133 131 130)
		(134 132 130 128)
		(128 130 131 129)
		(129 131 133 135)
		(135 133 132 134)
		(58 134 128 56)
		(56 128 129 57)
		(57 129 135 59)
		(59 135 134 58)
		(144 145 143 142)
		(146 144 142 140)
		(140 142 143 141)
		(141 143 145 147)
		(147 145 144 146)
		(66 146 140 64)
		(64 140 141 65)
		(65 141 147 67)
		(67 147 146 66)
		(156 157 155 154)
		(158 156 154 152)
		(152 154 155 153)
		(153 155 157 159)
		(159 157 156 158)
		(74 158 152 72)
		(72 152 153 73)
		(73 153 159 75)
		(75 159 158 74)
		(168 169 167 166)
		(170 168 166 164)
		(164 166 167 165)
		(165 167 169 171)
		(171 169 168 170)
		(82 170 164 80)
		(80 164 165 81)
		(81 165 171 83)
		(83 171 170 82)
		(180 181 179 178)
		(182 180 178 176)
		(176 178 179 177)
		(177 179 181 183)
		(183 181 180 182)
		(90 182 176 88)
		(88 176 177 89)
		(89 177 183 91)
		(91 183 182 90)
		(192 193 191 190)
		(194 192 190 188)
		(188 190 191 189)
		(189 191 193 195)
		(195 193 192 194)
		(98 194 188 96)
		(96 188 189 97)
		(97 189 195 99)
		(99 195 194 98)
	)

	patch frontAndBackPlanes
	(
		(0 1 41 40)
		(40 41 109 108)
		(108 109 205 204)
		(36 104 105 37)
		(104 200 201 105)
		(200 296 297 201)
		(1 2 42 41)
		(41 42 110 109)
		(109 110 206 205)
		(37 105 106 38)
		(105 201 202 106)
		(201 297 298 202)
		(2 3 43 42)
		(42 43 111 110)
		(110 111 207 206)
		(38 106 107 39)
		(106 202 203 107)
		(202 298 299 203)
	)
);

mergePatchPairs
(
);


// ************************************************************************* //

