/*--------------------------------*- C++ -*----------------------------------*\
| =========                 |                                                 |
| \      /  F ield         | foam-extend: Open Source CFD                    |
|  \    /   O peration     | Version:     4.0                                |
|   \  /    A nd           | Web:         http://www.foam-extend.org         |
|    \/     M anipulation  |                                                 |
\*---------------------------------------------------------------------------*/
FoamFile
{
    version     2.0;
    format      ascii;
    class       dictionary;
    object      blockMeshDict;
}
// * * * * * * * * * * * * * * * * * * * * * * * * * * * * * * * * * * * * * //

convertToMeters 0.001;
vertices
(
	(0 0 0)      //0
	(39.5 0 0)      //1
	(50.5 0 0)      //2
	(90 0 0)      //3
	(0 61.5 0)      //4
	(39.5 61.5 0)      //5
	(50.5 61.5 0)      //6
	(90 61.5 0)      //7
	(0 72.5 0)      //8
	(39.5 72.5 0)      //9
	(50.5 72.5 0)      //10
	(90 72.5 0)      //11
	(0 83.5 0)      //12
	(39.5 83.5 0)      //13
	(50.5 83.5 0)      //14
	(90 83.5 0)      //15
	(0 94.5 0)      //16
	(39.5 94.5 0)      //17
	(50.5 94.5 0)      //18
	(90 94.5 0)      //19
	(0 105.5 0)      //20
	(39.5 105.5 0)      //21
	(50.5 105.5 0)      //22
	(90 105.5 0)      //23
	(0 116.5 0)      //24
	(39.5 116.5 0)      //25
	(50.5 116.5 0)      //26
	(90 116.5 0)      //27
	(0 127.5 0)      //28
	(39.5 127.5 0)      //29
	(50.5 127.5 0)      //30
	(90 127.5 0)      //31
	(0 138.5 0)      //32
	(39.5 138.5 0)      //33
	(50.5 138.5 0)      //34
	(90 138.5 0)      //35
	(0 200 0)      //36
	(39.5 200 0)      //37
	(50.5 200 0)      //38
	(90 200 0)      //39
	(0 0 8)      //40
	(39.5 0 8)      //41
	(50.5 0 8)      //42
	(90 0 8)      //43
	(0 61.5 8)      //44
	(39.5 61.5 8)      //45
	(50.5 61.5 8)      //46
	(90 61.5 8)      //47
	(43.9393 65.9393 8)      //48
	(46.0607 65.9393 8)      //49
	(44.6464 66.6464 8)      //50
	(45.3536 66.6464 8)      //51
	(44.6464 67.3536 8)      //52
	(45.3536 67.3536 8)      //53
	(43.9393 68.0607 8)      //54
	(46.0607 68.0607 8)      //55
	(0 72.5 8)      //56
	(39.5 72.5 8)      //57
	(50.5 72.5 8)      //58
	(90 72.5 8)      //59
	(43.9393 76.9393 8)      //60
	(46.0607 76.9393 8)      //61
	(44.6464 77.6464 8)      //62
	(45.3536 77.6464 8)      //63
	(44.6464 78.3536 8)      //64
	(45.3536 78.3536 8)      //65
	(43.9393 79.0607 8)      //66
	(46.0607 79.0607 8)      //67
	(0 83.5 8)      //68
	(39.5 83.5 8)      //69
	(50.5 83.5 8)      //70
	(90 83.5 8)      //71
	(43.9393 87.9393 8)      //72
	(46.0607 87.9393 8)      //73
	(44.6464 88.6464 8)      //74
	(45.3536 88.6464 8)      //75
	(44.6464 89.3536 8)      //76
	(45.3536 89.3536 8)      //77
	(43.9393 90.0607 8)      //78
	(46.0607 90.0607 8)      //79
	(0 94.5 8)      //80
	(39.5 94.5 8)      //81
	(50.5 94.5 8)      //82
	(90 94.5 8)      //83
	(43.9393 98.9393 8)      //84
	(46.0607 98.9393 8)      //85
	(44.6464 99.6464 8)      //86
	(45.3536 99.6464 8)      //87
	(44.6464 100.3536 8)      //88
	(45.3536 100.3536 8)      //89
	(43.9393 101.0607 8)      //90
	(46.0607 101.0607 8)      //91
	(0 105.5 8)      //92
	(39.5 105.5 8)      //93
	(50.5 105.5 8)      //94
	(90 105.5 8)      //95
	(43.9393 109.9393 8)      //96
	(46.0607 109.9393 8)      //97
	(44.6464 110.6464 8)      //98
	(45.3536 110.6464 8)      //99
	(44.6464 111.3536 8)      //100
	(45.3536 111.3536 8)      //101
	(43.9393 112.0607 8)      //102
	(46.0607 112.0607 8)      //103
	(0 116.5 8)      //104
	(39.5 116.5 8)      //105
	(50.5 116.5 8)      //106
	(90 116.5 8)      //107
	(43.9393 120.9393 8)      //108
	(46.0607 120.9393 8)      //109
	(44.6464 121.6464 8)      //110
	(45.3536 121.6464 8)      //111
	(44.6464 122.3536 8)      //112
	(45.3536 122.3536 8)      //113
	(43.9393 123.0607 8)      //114
	(46.0607 123.0607 8)      //115
	(0 127.5 8)      //116
	(39.5 127.5 8)      //117
	(50.5 127.5 8)      //118
	(90 127.5 8)      //119
	(43.9393 131.9393 8)      //120
	(46.0607 131.9393 8)      //121
	(44.6464 132.6464 8)      //122
	(45.3536 132.6464 8)      //123
	(44.6464 133.3536 8)      //124
	(45.3536 133.3536 8)      //125
	(43.9393 134.0607 8)      //126
	(46.0607 134.0607 8)      //127
	(0 138.5 8)      //128
	(39.5 138.5 8)      //129
	(50.5 138.5 8)      //130
	(90 138.5 8)      //131
	(0 200 8)      //132
	(39.5 200 8)      //133
	(50.5 200 8)      //134
	(90 200 8)      //135
	(0 0 88)      //136
	(39.5 0 88)      //137
	(50.5 0 88)      //138
	(90 0 88)      //139
	(0 61.5 88)      //140
	(39.5 61.5 88)      //141
	(50.5 61.5 88)      //142
	(90 61.5 88)      //143
	(43.9393 65.9393 88)      //144
	(46.0607 65.9393 88)      //145
	(44.6464 66.6464 88)      //146
	(45.3536 66.6464 88)      //147
	(44.8232 66.8232 88)      //148
	(45.1768 66.8232 88)      //149
	(44.8232 67.1768 88)      //150
	(45.1768 67.1768 88)      //151
	(44.6464 67.3536 88)      //152
	(45.3536 67.3536 88)      //153
	(43.9393 68.0607 88)      //154
	(46.0607 68.0607 88)      //155
	(0 72.5 88)      //156
	(39.5 72.5 88)      //157
	(50.5 72.5 88)      //158
	(90 72.5 88)      //159
	(43.9393 76.9393 88)      //160
	(46.0607 76.9393 88)      //161
	(44.6464 77.6464 88)      //162
	(45.3536 77.6464 88)      //163
	(44.8232 77.8232 88)      //164
	(45.1768 77.8232 88)      //165
	(44.8232 78.1768 88)      //166
	(45.1768 78.1768 88)      //167
	(44.6464 78.3536 88)      //168
	(45.3536 78.3536 88)      //169
	(43.9393 79.0607 88)      //170
	(46.0607 79.0607 88)      //171
	(0 83.5 88)      //172
	(39.5 83.5 88)      //173
	(50.5 83.5 88)      //174
	(90 83.5 88)      //175
	(43.9393 87.9393 88)      //176
	(46.0607 87.9393 88)      //177
	(44.6464 88.6464 88)      //178
	(45.3536 88.6464 88)      //179
	(44.8232 88.8232 88)      //180
	(45.1768 88.8232 88)      //181
	(44.8232 89.1768 88)      //182
	(45.1768 89.1768 88)      //183
	(44.6464 89.3536 88)      //184
	(45.3536 89.3536 88)      //185
	(43.9393 90.0607 88)      //186
	(46.0607 90.0607 88)      //187
	(0 94.5 88)      //188
	(39.5 94.5 88)      //189
	(50.5 94.5 88)      //190
	(90 94.5 88)      //191
	(43.9393 98.9393 88)      //192
	(46.0607 98.9393 88)      //193
	(44.6464 99.6464 88)      //194
	(45.3536 99.6464 88)      //195
	(44.8232 99.8232 88)      //196
	(45.1768 99.8232 88)      //197
	(44.8232 100.1768 88)      //198
	(45.1768 100.1768 88)      //199
	(44.6464 100.3536 88)      //200
	(45.3536 100.3536 88)      //201
	(43.9393 101.0607 88)      //202
	(46.0607 101.0607 88)      //203
	(0 105.5 88)      //204
	(39.5 105.5 88)      //205
	(50.5 105.5 88)      //206
	(90 105.5 88)      //207
	(43.9393 109.9393 88)      //208
	(46.0607 109.9393 88)      //209
	(44.6464 110.6464 88)      //210
	(45.3536 110.6464 88)      //211
	(44.8232 110.8232 88)      //212
	(45.1768 110.8232 88)      //213
	(44.8232 111.1768 88)      //214
	(45.1768 111.1768 88)      //215
	(44.6464 111.3536 88)      //216
	(45.3536 111.3536 88)      //217
	(43.9393 112.0607 88)      //218
	(46.0607 112.0607 88)      //219
	(0 116.5 88)      //220
	(39.5 116.5 88)      //221
	(50.5 116.5 88)      //222
	(90 116.5 88)      //223
	(43.9393 120.9393 88)      //224
	(46.0607 120.9393 88)      //225
	(44.6464 121.6464 88)      //226
	(45.3536 121.6464 88)      //227
	(44.8232 121.8232 88)      //228
	(45.1768 121.8232 88)      //229
	(44.8232 122.1768 88)      //230
	(45.1768 122.1768 88)      //231
	(44.6464 122.3536 88)      //232
	(45.3536 122.3536 88)      //233
	(43.9393 123.0607 88)      //234
	(46.0607 123.0607 88)      //235
	(0 127.5 88)      //236
	(39.5 127.5 88)      //237
	(50.5 127.5 88)      //238
	(90 127.5 88)      //239
	(43.9393 131.9393 88)      //240
	(46.0607 131.9393 88)      //241
	(44.6464 132.6464 88)      //242
	(45.3536 132.6464 88)      //243
	(44.8232 132.8232 88)      //244
	(45.1768 132.8232 88)      //245
	(44.8232 133.1768 88)      //246
	(45.1768 133.1768 88)      //247
	(44.6464 133.3536 88)      //248
	(45.3536 133.3536 88)      //249
	(43.9393 134.0607 88)      //250
	(46.0607 134.0607 88)      //251
	(0 138.5 88)      //252
	(39.5 138.5 88)      //253
	(50.5 138.5 88)      //254
	(90 138.5 88)      //255
	(0 200 88)      //256
	(39.5 200 88)      //257
	(50.5 200 88)      //258
	(90 200 88)      //259
	(0 0 128)      //260
	(39.5 0 128)      //261
	(50.5 0 128)      //262
	(90 0 128)      //263
	(0 61.5 128)      //264
	(39.5 61.5 128)      //265
	(50.5 61.5 128)      //266
	(90 61.5 128)      //267
	(43.9393 65.9393 128)      //268
	(46.0607 65.9393 128)      //269
	(44.6464 66.6464 128)      //270
	(45.3536 66.6464 128)      //271
	(44.8232 66.8232 128)      //272
	(45.1768 66.8232 128)      //273
	(44.8232 67.1768 128)      //274
	(45.1768 67.1768 128)      //275
	(44.6464 67.3536 128)      //276
	(45.3536 67.3536 128)      //277
	(43.9393 68.0607 128)      //278
	(46.0607 68.0607 128)      //279
	(0 72.5 128)      //280
	(39.5 72.5 128)      //281
	(50.5 72.5 128)      //282
	(90 72.5 128)      //283
	(43.9393 76.9393 128)      //284
	(46.0607 76.9393 128)      //285
	(44.6464 77.6464 128)      //286
	(45.3536 77.6464 128)      //287
	(44.8232 77.8232 128)      //288
	(45.1768 77.8232 128)      //289
	(44.8232 78.1768 128)      //290
	(45.1768 78.1768 128)      //291
	(44.6464 78.3536 128)      //292
	(45.3536 78.3536 128)      //293
	(43.9393 79.0607 128)      //294
	(46.0607 79.0607 128)      //295
	(0 83.5 128)      //296
	(39.5 83.5 128)      //297
	(50.5 83.5 128)      //298
	(90 83.5 128)      //299
	(43.9393 87.9393 128)      //300
	(46.0607 87.9393 128)      //301
	(44.6464 88.6464 128)      //302
	(45.3536 88.6464 128)      //303
	(44.8232 88.8232 128)      //304
	(45.1768 88.8232 128)      //305
	(44.8232 89.1768 128)      //306
	(45.1768 89.1768 128)      //307
	(44.6464 89.3536 128)      //308
	(45.3536 89.3536 128)      //309
	(43.9393 90.0607 128)      //310
	(46.0607 90.0607 128)      //311
	(0 94.5 128)      //312
	(39.5 94.5 128)      //313
	(50.5 94.5 128)      //314
	(90 94.5 128)      //315
	(43.9393 98.9393 128)      //316
	(46.0607 98.9393 128)      //317
	(44.6464 99.6464 128)      //318
	(45.3536 99.6464 128)      //319
	(44.8232 99.8232 128)      //320
	(45.1768 99.8232 128)      //321
	(44.8232 100.1768 128)      //322
	(45.1768 100.1768 128)      //323
	(44.6464 100.3536 128)      //324
	(45.3536 100.3536 128)      //325
	(43.9393 101.0607 128)      //326
	(46.0607 101.0607 128)      //327
	(0 105.5 128)      //328
	(39.5 105.5 128)      //329
	(50.5 105.5 128)      //330
	(90 105.5 128)      //331
	(43.9393 109.9393 128)      //332
	(46.0607 109.9393 128)      //333
	(44.6464 110.6464 128)      //334
	(45.3536 110.6464 128)      //335
	(44.8232 110.8232 128)      //336
	(45.1768 110.8232 128)      //337
	(44.8232 111.1768 128)      //338
	(45.1768 111.1768 128)      //339
	(44.6464 111.3536 128)      //340
	(45.3536 111.3536 128)      //341
	(43.9393 112.0607 128)      //342
	(46.0607 112.0607 128)      //343
	(0 116.5 128)      //344
	(39.5 116.5 128)      //345
	(50.5 116.5 128)      //346
	(90 116.5 128)      //347
	(43.9393 120.9393 128)      //348
	(46.0607 120.9393 128)      //349
	(44.6464 121.6464 128)      //350
	(45.3536 121.6464 128)      //351
	(44.8232 121.8232 128)      //352
	(45.1768 121.8232 128)      //353
	(44.8232 122.1768 128)      //354
	(45.1768 122.1768 128)      //355
	(44.6464 122.3536 128)      //356
	(45.3536 122.3536 128)      //357
	(43.9393 123.0607 128)      //358
	(46.0607 123.0607 128)      //359
	(0 127.5 128)      //360
	(39.5 127.5 128)      //361
	(50.5 127.5 128)      //362
	(90 127.5 128)      //363
	(43.9393 131.9393 128)      //364
	(46.0607 131.9393 128)      //365
	(44.6464 132.6464 128)      //366
	(45.3536 132.6464 128)      //367
	(44.8232 132.8232 128)      //368
	(45.1768 132.8232 128)      //369
	(44.8232 133.1768 128)      //370
	(45.1768 133.1768 128)      //371
	(44.6464 133.3536 128)      //372
	(45.3536 133.3536 128)      //373
	(43.9393 134.0607 128)      //374
	(46.0607 134.0607 128)      //375
	(0 138.5 128)      //376
	(39.5 138.5 128)      //377
	(50.5 138.5 128)      //378
	(90 138.5 128)      //379
	(0 200 128)      //380
	(39.5 200 128)      //381
	(50.5 200 128)      //382
	(90 200 128)      //383

);

blocks
(
	hex (0 1 5 4 40 41 45 44) (11 18 5) simpleGrading (0.2 0.2 1)
	hex (4 5 9 8 44 45 57 56) (11 7 5) simpleGrading (0.2 1 1)
	hex (8 9 13 12 56 57 69 68) (11 7 5) simpleGrading (0.2 1 1)
	hex (12 13 17 16 68 69 81 80) (11 7 5) simpleGrading (0.2 1 1)
	hex (16 17 21 20 80 81 93 92) (11 7 5) simpleGrading (0.2 1 1)
	hex (20 21 25 24 92 93 105 104) (11 7 5) simpleGrading (0.2 1 1)
	hex (24 25 29 28 104 105 117 116) (11 7 5) simpleGrading (0.2 1 1)
	hex (28 29 33 32 116 117 129 128) (11 7 5) simpleGrading (0.2 1 1)
	hex (32 33 37 36 128 129 133 132) (11 18 5) simpleGrading (0.2 5 1)

	hex (2 3 7 6 42 43 47 46) (11 18 5) simpleGrading (5 0.2 1)
	hex (6 7 11 10 46 47 59 58) (11 7 5) simpleGrading (5 1 1)
	hex (10 11 15 14 58 59 71 70) (11 7 5) simpleGrading (5 1 1)
	hex (14 15 19 18 70 71 83 82) (11 7 5) simpleGrading (5 1 1)
	hex (18 19 23 22 82 83 95 94) (11 7 5) simpleGrading (5 1 1)
	hex (22 23 27 26 94 95 107 106) (11 7 5) simpleGrading (5 1 1)
	hex (26 27 31 30 106 107 119 118) (11 7 5) simpleGrading (5 1 1)
	hex (30 31 35 34 118 119 131 130) (11 7 5) simpleGrading (5 1 1)
	hex (34 35 39 38 130 131 135 134) (11 18 5) simpleGrading (5 5 1)

	hex (1 2 6 5 41 42 46 45) (7 18 5) simpleGrading (1 0.2 1)
	hex (33 34 38 37 48 49 53 52) (7 18 5) simpleGrading (1 5 1)

	hex (40 41 45 44 136 137 141 140) (11 18 80) simpleGrading (0.2 0.2 1)
	hex (44 45 57 56 140 141 157 156) (11 7 80) simpleGrading (0.2 1 1)
	hex (56 57 69 68 156 157 173 172) (11 7 80) simpleGrading (0.2 1 1)
	hex (68 69 81 80 172 173 189 188) (11 7 80) simpleGrading (0.2 1 1)
	hex (80 81 93 92 188 189 205 204) (11 7 80) simpleGrading (0.2 1 1)
	hex (92 93 105 104 204 205 221 220) (11 7 80) simpleGrading (0.2 1 1)
	hex (104 105 117 116 220 221 237 236) (11 7 80) simpleGrading (0.2 1 1)
	hex (116 117 129 128 236 237 253 252) (11 7 80) simpleGrading (0.2 1 1)
	hex (128 129 133 132 252 253 257 256) (11 18 80) simpleGrading (0.2 5 1)

	hex (42 43 47 46 138 139 143 142) (11 18 80) simpleGrading (5 0.2 1)
	hex (46 47 59 58 142 143 159 158) (11 7 80) simpleGrading (5 1 1)
	hex (58 59 71 70 158 159 175 174) (11 7 80) simpleGrading (5 1 1)
	hex (70 71 83 82 174 175 191 190) (11 7 80) simpleGrading (5 1 1)
	hex (82 83 95 94 190 191 207 206) (11 7 80) simpleGrading (5 1 1)
	hex (94 95 107 106 206 207 223 222) (11 7 80) simpleGrading (5 1 1)
	hex (106 107 119 118 222 223 239 238) (11 7 80) simpleGrading (5 1 1)
	hex (118 119 131 130 238 239 255 254) (11 7 80) simpleGrading (5 1 1)
	hex (130 131 135 134 254 255 259 258) (11 18 80) simpleGrading (5 5 1)

	hex (41 42 46 45 137 138 142 141) (7 18 80) simpleGrading (1 0.2 1)
	hex (48 49 53 52 144 145 149 148) (7 18 80) simpleGrading (1 5 1)
	hex (49 50 54 53 145 146 150 149) (7 18 80) simpleGrading (1 5 1)
	hex (54 55 59 58 154 155 159 158) (7 18 80) simpleGrading (1 5 1)
	hex (55 56 60 59 155 156 160 159) (7 18 80) simpleGrading (1 5 1)
	hex (60 61 65 64 160 161 165 164) (7 18 80) simpleGrading (1 5 1)
	hex (61 62 66 65 161 162 166 165) (7 18 80) simpleGrading (1 5 1)
	hex (66 67 71 70 170 171 175 174) (7 18 80) simpleGrading (1 5 1)
	hex (67 68 72 71 171 172 176 175) (7 18 80) simpleGrading (1 5 1)
	hex (72 73 77 76 176 177 181 180) (7 18 80) simpleGrading (1 5 1)
	hex (73 74 78 77 177 178 182 181) (7 18 80) simpleGrading (1 5 1)
	hex (78 79 83 82 186 187 191 190) (7 18 80) simpleGrading (1 5 1)
	hex (79 80 84 83 187 188 192 191) (7 18 80) simpleGrading (1 5 1)
	hex (84 85 89 88 192 193 197 196) (7 18 80) simpleGrading (1 5 1)
	hex (85 86 90 89 193 194 198 197) (7 18 80) simpleGrading (1 5 1)
	hex (90 91 95 94 202 203 207 206) (7 18 80) simpleGrading (1 5 1)
	hex (91 92 96 95 203 204 208 207) (7 18 80) simpleGrading (1 5 1)
	hex (96 97 101 100 208 209 213 212) (7 18 80) simpleGrading (1 5 1)
	hex (97 98 102 101 209 210 214 213) (7 18 80) simpleGrading (1 5 1)
	hex (102 103 107 106 218 219 223 222) (7 18 80) simpleGrading (1 5 1)
	hex (103 104 108 107 219 220 224 223) (7 18 80) simpleGrading (1 5 1)
	hex (108 109 113 112 224 225 229 228) (7 18 80) simpleGrading (1 5 1)
	hex (109 110 114 113 225 226 230 229) (7 18 80) simpleGrading (1 5 1)
	hex (114 115 119 118 234 235 239 238) (7 18 80) simpleGrading (1 5 1)
	hex (115 116 120 119 235 236 240 239) (7 18 80) simpleGrading (1 5 1)
	hex (120 121 125 124 240 241 245 244) (7 18 80) simpleGrading (1 5 1)
	hex (121 122 126 125 241 242 246 245) (7 18 80) simpleGrading (1 5 1)
	hex (126 127 131 130 250 251 255 254) (7 18 80) simpleGrading (1 5 1)
	hex (127 128 132 131 251 252 256 255) (7 18 80) simpleGrading (1 5 1)
	hex (129 130 134 133 253 254 258 257) (7 18 80) simpleGrading (1 5 1)

	hex (45 48 54 57 141 144 150 157) (5 7 80) simpleGrading (0.2 1 1)
	hex (46 49 48 45 142 145 144 141) (5 7 80) simpleGrading (0.2 1 1)
	hex (58 55 49 46 158 151 145 142) (5 7 80) simpleGrading (0.2 1 1)
	hex (57 54 55 58 157 150 151 158) (5 7 80) simpleGrading (0.2 1 1)
	hex (48 50 52 54 144 146 148 150) (5 7 80) simpleGrading (0.2 1 1)
	hex (49 51 50 48 145 147 146 144) (5 7 80) simpleGrading (0.2 1 1)
	hex (55 53 51 49 151 149 147 145) (5 7 80) simpleGrading (0.2 1 1)
	hex (54 52 53 55 150 148 149 151) (5 7 80) simpleGrading (0.2 1 1)
	hex (57 60 66 69 157 160 166 173) (5 7 80) simpleGrading (0.2 1 1)
	hex (58 61 60 57 158 161 160 157) (5 7 80) simpleGrading (0.2 1 1)
	hex (70 67 61 58 174 167 161 158) (5 7 80) simpleGrading (0.2 1 1)
	hex (69 66 67 70 173 166 167 174) (5 7 80) simpleGrading (0.2 1 1)
	hex (60 62 64 66 160 162 164 166) (5 7 80) simpleGrading (0.2 1 1)
	hex (61 63 62 60 161 163 162 160) (5 7 80) simpleGrading (0.2 1 1)
	hex (67 65 63 61 167 165 163 161) (5 7 80) simpleGrading (0.2 1 1)
	hex (66 64 65 67 166 164 165 167) (5 7 80) simpleGrading (0.2 1 1)
	hex (69 72 78 81 173 176 182 189) (5 7 80) simpleGrading (0.2 1 1)
	hex (70 73 72 69 174 177 176 173) (5 7 80) simpleGrading (0.2 1 1)
	hex (82 79 73 70 190 183 177 174) (5 7 80) simpleGrading (0.2 1 1)
	hex (81 78 79 82 189 182 183 190) (5 7 80) simpleGrading (0.2 1 1)
	hex (72 74 76 78 176 178 180 182) (5 7 80) simpleGrading (0.2 1 1)
	hex (73 75 74 72 177 179 178 176) (5 7 80) simpleGrading (0.2 1 1)
	hex (79 77 75 73 183 181 179 177) (5 7 80) simpleGrading (0.2 1 1)
	hex (78 76 77 79 182 180 181 183) (5 7 80) simpleGrading (0.2 1 1)
	hex (81 84 90 93 189 192 198 205) (5 7 80) simpleGrading (0.2 1 1)
	hex (82 85 84 81 190 193 192 189) (5 7 80) simpleGrading (0.2 1 1)
	hex (94 91 85 82 206 199 193 190) (5 7 80) simpleGrading (0.2 1 1)
	hex (93 90 91 94 205 198 199 206) (5 7 80) simpleGrading (0.2 1 1)
	hex (84 86 88 90 192 194 196 198) (5 7 80) simpleGrading (0.2 1 1)
	hex (85 87 86 84 193 195 194 192) (5 7 80) simpleGrading (0.2 1 1)
	hex (91 89 87 85 199 197 195 193) (5 7 80) simpleGrading (0.2 1 1)
	hex (90 88 89 91 198 196 197 199) (5 7 80) simpleGrading (0.2 1 1)
	hex (93 96 102 105 205 208 214 221) (5 7 80) simpleGrading (0.2 1 1)
	hex (94 97 96 93 206 209 208 205) (5 7 80) simpleGrading (0.2 1 1)
	hex (106 103 97 94 222 215 209 206) (5 7 80) simpleGrading (0.2 1 1)
	hex (105 102 103 106 221 214 215 222) (5 7 80) simpleGrading (0.2 1 1)
	hex (96 98 100 102 208 210 212 214) (5 7 80) simpleGrading (0.2 1 1)
	hex (97 99 98 96 209 211 210 208) (5 7 80) simpleGrading (0.2 1 1)
	hex (103 101 99 97 215 213 211 209) (5 7 80) simpleGrading (0.2 1 1)
	hex (102 100 101 103 214 212 213 215) (5 7 80) simpleGrading (0.2 1 1)
	hex (105 108 114 117 221 224 230 237) (5 7 80) simpleGrading (0.2 1 1)
	hex (106 109 108 105 222 225 224 221) (5 7 80) simpleGrading (0.2 1 1)
	hex (118 115 109 106 238 231 225 222) (5 7 80) simpleGrading (0.2 1 1)
	hex (117 114 115 118 237 230 231 238) (5 7 80) simpleGrading (0.2 1 1)
	hex (108 110 112 114 224 226 228 230) (5 7 80) simpleGrading (0.2 1 1)
	hex (109 111 110 108 225 227 226 224) (5 7 80) simpleGrading (0.2 1 1)
	hex (115 113 111 109 231 229 227 225) (5 7 80) simpleGrading (0.2 1 1)
	hex (114 112 113 115 230 228 229 231) (5 7 80) simpleGrading (0.2 1 1)
	hex (117 120 126 129 237 240 246 253) (5 7 80) simpleGrading (0.2 1 1)
	hex (118 121 120 117 238 241 240 237) (5 7 80) simpleGrading (0.2 1 1)
	hex (130 127 121 118 254 247 241 238) (5 7 80) simpleGrading (0.2 1 1)
	hex (129 126 127 130 253 246 247 254) (5 7 80) simpleGrading (0.2 1 1)
	hex (120 122 124 126 240 242 244 246) (5 7 80) simpleGrading (0.2 1 1)
	hex (121 123 122 120 241 243 242 240) (5 7 80) simpleGrading (0.2 1 1)
	hex (127 125 123 121 247 245 243 241) (5 7 80) simpleGrading (0.2 1 1)
	hex (126 124 125 127 246 244 245 247) (5 7 80) simpleGrading (0.2 1 1)

	hex (136 137 141 140 260 261 265 264) (11 18 30) simpleGrading (0.2 0.2 1)
	hex (140 141 157 156 264 265 281 280) (11 7 30) simpleGrading (0.2 1 1)
	hex (156 157 173 172 280 281 297 296) (11 7 30) simpleGrading (0.2 1 1)
	hex (172 173 189 188 296 297 313 312) (11 7 30) simpleGrading (0.2 1 1)
	hex (188 189 205 204 312 313 329 328) (11 7 30) simpleGrading (0.2 1 1)
	hex (204 205 221 220 328 329 345 344) (11 7 30) simpleGrading (0.2 1 1)
	hex (220 221 237 236 344 345 361 360) (11 7 30) simpleGrading (0.2 1 1)
	hex (236 237 253 252 360 361 377 376) (11 7 30) simpleGrading (0.2 1 1)
	hex (252 253 257 256 376 377 381 380) (11 18 30) simpleGrading (0.2 5 1)

	hex (138 139 143 142 262 263 267 266) (11 18 30) simpleGrading (5 0.2 1)
	hex (142 143 159 158 266 267 283 282) (11 7 30) simpleGrading (5 1 1)
	hex (158 159 175 174 282 283 299 298) (11 7 30) simpleGrading (5 1 1)
	hex (174 175 191 190 298 299 315 314) (11 7 30) simpleGrading (5 1 1)
	hex (190 191 207 206 314 315 331 330) (11 7 30) simpleGrading (5 1 1)
	hex (206 207 223 222 330 331 347 346) (11 7 30) simpleGrading (5 1 1)
	hex (222 223 239 238 346 347 363 362) (11 7 30) simpleGrading (5 1 1)
	hex (238 239 255 254 362 363 379 378) (11 7 30) simpleGrading (5 1 1)
	hex (254 255 259 258 378 379 383 382) (11 18 30) simpleGrading (5 5 1)

	hex (137 138 142 141 261 262 266 265) (7 18 30) simpleGrading (1 0.2 1)
	hex (144 145 149 148 268 269 273 272) (7 18 30) simpleGrading (1 5 1)
	hex (145 146 150 149 269 270 274 273) (7 18 30) simpleGrading (1 5 1)
	hex (154 155 159 158 278 279 283 282) (7 18 30) simpleGrading (1 5 1)
	hex (155 156 160 159 279 280 284 283) (7 18 30) simpleGrading (1 5 1)
	hex (160 161 165 164 284 285 289 288) (7 18 30) simpleGrading (1 5 1)
	hex (161 162 166 165 285 286 290 289) (7 18 30) simpleGrading (1 5 1)
	hex (170 171 175 174 294 295 299 298) (7 18 30) simpleGrading (1 5 1)
	hex (171 172 176 175 295 296 300 299) (7 18 30) simpleGrading (1 5 1)
	hex (176 177 181 180 300 301 305 304) (7 18 30) simpleGrading (1 5 1)
	hex (177 178 182 181 301 302 306 305) (7 18 30) simpleGrading (1 5 1)
	hex (186 187 191 190 310 311 315 314) (7 18 30) simpleGrading (1 5 1)
	hex (187 188 192 191 311 312 316 315) (7 18 30) simpleGrading (1 5 1)
	hex (192 193 197 196 316 317 321 320) (7 18 30) simpleGrading (1 5 1)
	hex (193 194 198 197 317 318 322 321) (7 18 30) simpleGrading (1 5 1)
	hex (202 203 207 206 326 327 331 330) (7 18 30) simpleGrading (1 5 1)
	hex (203 204 208 207 327 328 332 331) (7 18 30) simpleGrading (1 5 1)
	hex (208 209 213 212 332 333 337 336) (7 18 30) simpleGrading (1 5 1)
	hex (209 210 214 213 333 334 338 337) (7 18 30) simpleGrading (1 5 1)
	hex (218 219 223 222 342 343 347 346) (7 18 30) simpleGrading (1 5 1)
	hex (219 220 224 223 343 344 348 347) (7 18 30) simpleGrading (1 5 1)
	hex (224 225 229 228 348 349 353 352) (7 18 30) simpleGrading (1 5 1)
	hex (225 226 230 229 349 350 354 353) (7 18 30) simpleGrading (1 5 1)
	hex (234 235 239 238 358 359 363 362) (7 18 30) simpleGrading (1 5 1)
	hex (235 236 240 239 359 360 364 363) (7 18 30) simpleGrading (1 5 1)
	hex (240 241 245 244 364 365 369 368) (7 18 30) simpleGrading (1 5 1)
	hex (241 242 246 245 365 366 370 369) (7 18 30) simpleGrading (1 5 1)
	hex (250 251 255 254 374 375 379 378) (7 18 30) simpleGrading (1 5 1)
	hex (251 252 256 255 375 376 380 379) (7 18 30) simpleGrading (1 5 1)
	hex (253 254 258 257 377 378 382 381) (7 18 30) simpleGrading (1 5 1)

	hex (141 144 154 157 265 268 278 281) (5 7 30) simpleGrading (0.2 1 1)
	hex (142 145 144 141 266 269 268 265) (5 7 30) simpleGrading (0.2 1 1)
	hex (158 155 145 142 282 279 269 266) (5 7 30) simpleGrading (0.2 1 1)
	hex (157 154 155 158 281 278 279 282) (5 7 30) simpleGrading (0.2 1 1)
	hex (144 146 152 154 268 270 276 278) (5 7 30) simpleGrading (0.2 1 1)
	hex (145 147 146 144 269 271 270 268) (5 7 30) simpleGrading (0.2 1 1)
	hex (155 153 147 145 279 277 271 269) (5 7 30) simpleGrading (0.2 1 1)
	hex (154 152 153 155 278 276 277 279) (5 7 30) simpleGrading (0.2 1 1)
	hex (157 160 170 173 281 284 294 297) (5 7 30) simpleGrading (0.2 1 1)
	hex (158 161 160 157 282 285 284 281) (5 7 30) simpleGrading (0.2 1 1)
	hex (174 171 161 158 298 295 285 282) (5 7 30) simpleGrading (0.2 1 1)
	hex (173 170 171 174 297 294 295 298) (5 7 30) simpleGrading (0.2 1 1)
	hex (160 162 168 170 284 286 292 294) (5 7 30) simpleGrading (0.2 1 1)
	hex (161 163 162 160 285 287 286 284) (5 7 30) simpleGrading (0.2 1 1)
	hex (171 169 163 161 295 293 287 285) (5 7 30) simpleGrading (0.2 1 1)
	hex (170 168 169 171 294 292 293 295) (5 7 30) simpleGrading (0.2 1 1)
	hex (173 176 186 189 297 300 310 313) (5 7 30) simpleGrading (0.2 1 1)
	hex (174 177 176 173 298 301 300 297) (5 7 30) simpleGrading (0.2 1 1)
	hex (190 187 177 174 314 311 301 298) (5 7 30) simpleGrading (0.2 1 1)
	hex (189 186 187 190 313 310 311 314) (5 7 30) simpleGrading (0.2 1 1)
	hex (176 178 184 186 300 302 308 310) (5 7 30) simpleGrading (0.2 1 1)
	hex (177 179 178 176 301 303 302 300) (5 7 30) simpleGrading (0.2 1 1)
	hex (187 185 179 177 311 309 303 301) (5 7 30) simpleGrading (0.2 1 1)
	hex (186 184 185 187 310 308 309 311) (5 7 30) simpleGrading (0.2 1 1)
	hex (189 192 202 205 313 316 326 329) (5 7 30) simpleGrading (0.2 1 1)
	hex (190 193 192 189 314 317 316 313) (5 7 30) simpleGrading (0.2 1 1)
	hex (206 203 193 190 330 327 317 314) (5 7 30) simpleGrading (0.2 1 1)
	hex (205 202 203 206 329 326 327 330) (5 7 30) simpleGrading (0.2 1 1)
	hex (192 194 200 202 316 318 324 326) (5 7 30) simpleGrading (0.2 1 1)
	hex (193 195 194 192 317 319 318 316) (5 7 30) simpleGrading (0.2 1 1)
	hex (203 201 195 193 327 325 319 317) (5 7 30) simpleGrading (0.2 1 1)
	hex (202 200 201 203 326 324 325 327) (5 7 30) simpleGrading (0.2 1 1)
	hex (205 208 218 221 329 332 342 345) (5 7 30) simpleGrading (0.2 1 1)
	hex (206 209 208 205 330 333 332 329) (5 7 30) simpleGrading (0.2 1 1)
	hex (222 219 209 206 346 343 333 330) (5 7 30) simpleGrading (0.2 1 1)
	hex (221 218 219 222 345 342 343 346) (5 7 30) simpleGrading (0.2 1 1)
	hex (208 210 216 218 332 334 340 342) (5 7 30) simpleGrading (0.2 1 1)
	hex (209 211 210 208 333 335 334 332) (5 7 30) simpleGrading (0.2 1 1)
	hex (219 217 211 209 343 341 335 333) (5 7 30) simpleGrading (0.2 1 1)
	hex (218 216 217 219 342 340 341 343) (5 7 30) simpleGrading (0.2 1 1)
	hex (221 224 234 237 345 348 358 361) (5 7 30) simpleGrading (0.2 1 1)
	hex (222 225 224 221 346 349 348 345) (5 7 30) simpleGrading (0.2 1 1)
	hex (238 235 225 222 362 359 349 346) (5 7 30) simpleGrading (0.2 1 1)
	hex (237 234 235 238 361 358 359 362) (5 7 30) simpleGrading (0.2 1 1)
	hex (224 226 232 234 348 350 356 358) (5 7 30) simpleGrading (0.2 1 1)
	hex (225 227 226 224 349 351 350 348) (5 7 30) simpleGrading (0.2 1 1)
	hex (235 233 227 225 359 357 351 349) (5 7 30) simpleGrading (0.2 1 1)
	hex (234 232 233 235 358 356 357 359) (5 7 30) simpleGrading (0.2 1 1)
	hex (237 240 250 253 361 364 374 377) (5 7 30) simpleGrading (0.2 1 1)
	hex (238 241 240 237 362 365 364 361) (5 7 30) simpleGrading (0.2 1 1)
	hex (254 251 241 238 378 375 365 362) (5 7 30) simpleGrading (0.2 1 1)
	hex (253 250 251 254 377 374 375 378) (5 7 30) simpleGrading (0.2 1 1)
	hex (240 242 248 250 364 366 372 374) (5 7 30) simpleGrading (0.2 1 1)
	hex (241 243 242 240 365 367 366 364) (5 7 30) simpleGrading (0.2 1 1)
	hex (251 249 243 241 375 373 367 365) (5 7 30) simpleGrading (0.2 1 1)
	hex (250 248 249 251 374 372 373 375) (5 7 30) simpleGrading (0.2 1 1)

	hex (148 149 151 150 272 273 275 274) (7 7 30) simpleGrading (1 1 1)
	hex (146 148 150 152 270 272 274 276) (2 7 30) simpleGrading (0.5 1 1)
	hex (147 149 148 146 271 273 272 270) (2 7 30) simpleGrading (0.5 1 1)
	hex (153 151 149 147 277 275 273 271) (2 7 30) simpleGrading (0.5 1 1)
	hex (152 150 151 153 276 274 275 277) (2 7 30) simpleGrading (0.5 1 1)
	hex (164 165 167 166 288 289 291 290) (7 7 30) simpleGrading (1 1 1)
	hex (162 164 166 168 286 288 290 292) (2 7 30) simpleGrading (0.5 1 1)
	hex (163 165 164 162 287 289 288 286) (2 7 30) simpleGrading (0.5 1 1)
	hex (169 167 165 163 293 291 289 287) (2 7 30) simpleGrading (0.5 1 1)
	hex (168 166 167 169 292 290 291 293) (2 7 30) simpleGrading (0.5 1 1)
	hex (180 181 183 182 304 305 307 306) (7 7 30) simpleGrading (1 1 1)
	hex (178 180 182 184 302 304 306 308) (2 7 30) simpleGrading (0.5 1 1)
	hex (179 181 180 178 303 305 304 302) (2 7 30) simpleGrading (0.5 1 1)
	hex (185 183 181 179 309 307 305 303) (2 7 30) simpleGrading (0.5 1 1)
	hex (184 182 183 185 308 306 307 309) (2 7 30) simpleGrading (0.5 1 1)
	hex (196 197 199 198 320 321 323 322) (7 7 30) simpleGrading (1 1 1)
	hex (194 196 198 200 318 320 322 324) (2 7 30) simpleGrading (0.5 1 1)
	hex (195 197 196 194 319 321 320 318) (2 7 30) simpleGrading (0.5 1 1)
	hex (201 199 197 195 325 323 321 319) (2 7 30) simpleGrading (0.5 1 1)
	hex (200 198 199 201 324 322 323 325) (2 7 30) simpleGrading (0.5 1 1)
	hex (212 213 215 214 336 337 339 338) (7 7 30) simpleGrading (1 1 1)
	hex (210 212 214 216 334 336 338 340) (2 7 30) simpleGrading (0.5 1 1)
	hex (211 213 212 210 335 337 336 334) (2 7 30) simpleGrading (0.5 1 1)
	hex (217 215 213 211 341 339 337 335) (2 7 30) simpleGrading (0.5 1 1)