/*--------------------------------*- C++ -*----------------------------------*\
| =========                 |                                                 |
| \      /  F ield         | foam-extend: Open Source CFD                    |
|  \    /   O peration     | Version:     4.0                                |
|   \  /    A nd           | Web:         http://www.foam-extend.org         |
|    \/     M anipulation  |                                                 |
\*---------------------------------------------------------------------------*/
FoamFile
{
    version     2.0;
    format      ascii;
    class       dictionary;
    object      blockMeshDict;
}
// * * * * * * * * * * * * * * * * * * * * * * * * * * * * * * * * * * * * * //

convertToMeters 1e-6;
vertices
(
	(0 0 0)      //0
	(49.5 0 0)      //1
	(55.5 0 0)      //2
	(145 0 0)      //3
	(0 33 0)      //4
	(49.5 33 0)      //5
	(55.5 33 0)      //6
	(145 33 0)      //7
	(0 45 0)      //8
	(49.5 45 0)      //9
	(55.5 45 0)      //10
	(145 45 0)      //11
	(0 57 0)      //12
	(49.5 57 0)      //13
	(55.5 57 0)      //14
	(145 57 0)      //15
	(0 69 0)      //16
	(49.5 69 0)      //17
	(55.5 69 0)      //18
	(145 69 0)      //19
	(0 81 0)      //20
	(49.5 81 0)      //21
	(55.5 81 0)      //22
	(145 81 0)      //23
	(0 93 0)      //24
	(49.5 93 0)      //25
	(55.5 93 0)      //26
	(145 93 0)      //27
	(0 105 0)      //28
	(49.5 105 0)      //29
	(55.5 105 0)      //30
	(145 105 0)      //31
	(0 117 0)      //32
	(49.5 117 0)      //33
	(55.5 117 0)      //34
	(145 117 0)      //35
	(0 150 0)      //36
	(49.5 150 0)      //37
	(55.5 150 0)      //38
	(145 150 0)      //39
	(0 0 4)      //40
	(49.5 0 4)      //41
	(55.5 0 4)      //42
	(145 0 4)      //43
	(0 33 4)      //44
	(49.5 33 4)      //45
	(55.5 33 4)      //46
	(145 33 4)      //47
	(50.3787 36.8787 4)      //48
	(54.6213 36.8787 4)      //49
	(51.7929 38.2929 4)      //50
	(53.2071 38.2929 4)      //51
	(51.7929 39.7071 4)      //52
	(53.2071 39.7071 4)      //53
	(50.3787 41.1213 4)      //54
	(54.6213 41.1213 4)      //55
	(0 45 4)      //56
	(49.5 45 4)      //57
	(55.5 45 4)      //58
	(145 45 4)      //59
	(50.3787 48.8787 4)      //60
	(54.6213 48.8787 4)      //61
	(51.7929 50.2929 4)      //62
	(53.2071 50.2929 4)      //63
	(51.7929 51.7071 4)      //64
	(53.2071 51.7071 4)      //65
	(50.3787 53.1213 4)      //66
	(54.6213 53.1213 4)      //67
	(0 57 4)      //68
	(49.5 57 4)      //69
	(55.5 57 4)      //70
	(145 57 4)      //71
	(50.3787 60.8787 4)      //72
	(54.6213 60.8787 4)      //73
	(51.7929 62.2929 4)      //74
	(53.2071 62.2929 4)      //75
	(51.7929 63.7071 4)      //76
	(53.2071 63.7071 4)      //77
	(50.3787 65.1213 4)      //78
	(54.6213 65.1213 4)      //79
	(0 69 4)      //80
	(49.5 69 4)      //81
	(55.5 69 4)      //82
	(145 69 4)      //83
	(50.3787 72.8787 4)      //84
	(54.6213 72.8787 4)      //85
	(51.7929 74.2929 4)      //86
	(53.2071 74.2929 4)      //87
	(51.7929 75.7071 4)      //88
	(53.2071 75.7071 4)      //89
	(50.3787 77.1213 4)      //90
	(54.6213 77.1213 4)      //91
	(0 81 4)      //92
	(49.5 81 4)      //93
	(55.5 81 4)      //94
	(145 81 4)      //95
	(50.3787 84.8787 4)      //96
	(54.6213 84.8787 4)      //97
	(51.7929 86.2929 4)      //98
	(53.2071 86.2929 4)      //99
	(51.7929 87.7071 4)      //100
	(53.2071 87.7071 4)      //101
	(50.3787 89.1213 4)      //102
	(54.6213 89.1213 4)      //103
	(0 93 4)      //104
	(49.5 93 4)      //105
	(55.5 93 4)      //106
	(145 93 4)      //107
	(50.3787 96.8787 4)      //108
	(54.6213 96.8787 4)      //109
	(51.7929 98.2929 4)      //110
	(53.2071 98.2929 4)      //111
	(51.7929 99.7071 4)      //112
	(53.2071 99.7071 4)      //113
	(50.3787 101.1213 4)      //114
	(54.6213 101.1213 4)      //115
	(0 105 4)      //116
	(49.5 105 4)      //117
	(55.5 105 4)      //118
	(145 105 4)      //119
	(50.3787 108.8787 4)      //120
	(54.6213 108.8787 4)      //121
	(51.7929 110.2929 4)      //122
	(53.2071 110.2929 4)      //123
	(51.7929 111.7071 4)      //124
	(53.2071 111.7071 4)      //125
	(50.3787 113.1213 4)      //126
	(54.6213 113.1213 4)      //127
	(0 117 4)      //128
	(49.5 117 4)      //129
	(55.5 117 4)      //130
	(145 117 4)      //131
	(0 150 4)      //132
	(49.5 150 4)      //133
	(55.5 150 4)      //134
	(145 150 4)      //135
	(0 0 144)      //136
	(49.5 0 144)      //137
	(55.5 0 144)      //138
	(145 0 144)      //139
	(0 33 144)      //140
	(49.5 33 144)      //141
	(55.5 33 144)      //142
	(145 33 144)      //143
	(50.3787 36.8787 144)      //144
	(54.6213 36.8787 144)      //145
	(51.7929 38.2929 144)      //146
	(53.2071 38.2929 144)      //147
	(52.1464 38.6464 144)      //148
	(52.8536 38.6464 144)      //149
	(52.1464 39.3536 144)      //150
	(52.8536 39.3536 144)      //151
	(51.7929 39.7071 144)      //152
	(53.2071 39.7071 144)      //153
	(50.3787 41.1213 144)      //154
	(54.6213 41.1213 144)      //155
	(0 45 144)      //156
	(49.5 45 144)      //157
	(55.5 45 144)      //158
	(145 45 144)      //159
	(50.3787 48.8787 144)      //160
	(54.6213 48.8787 144)      //161
	(51.7929 50.2929 144)      //162
	(53.2071 50.2929 144)      //163
	(52.1464 50.6464 144)      //164
	(52.8536 50.6464 144)      //165
	(52.1464 51.3536 144)      //166
	(52.8536 51.3536 144)      //167
	(51.7929 51.7071 144)      //168
	(53.2071 51.7071 144)      //169
	(50.3787 53.1213 144)      //170
	(54.6213 53.1213 144)      //171
	(0 57 144)      //172
	(49.5 57 144)      //173
	(55.5 57 144)      //174
	(145 57 144)      //175
	(50.3787 60.8787 144)      //176
	(54.6213 60.8787 144)      //177
	(51.7929 62.2929 144)      //178
	(53.2071 62.2929 144)      //179
	(52.1464 62.6464 144)      //180
	(52.8536 62.6464 144)      //181
	(52.1464 63.3536 144)      //182
	(52.8536 63.3536 144)      //183
	(51.7929 63.7071 144)      //184
	(53.2071 63.7071 144)      //185
	(50.3787 65.1213 144)      //186
	(54.6213 65.1213 144)      //187
	(0 69 144)      //188
	(49.5 69 144)      //189
	(55.5 69 144)      //190
	(145 69 144)      //191
	(50.3787 72.8787 144)      //192
	(54.6213 72.8787 144)      //193
	(51.7929 74.2929 144)      //194
	(53.2071 74.2929 144)      //195
	(52.1464 74.6464 144)      //196
	(52.8536 74.6464 144)      //197
	(52.1464 75.3536 144)      //198
	(52.8536 75.3536 144)      //199
	(51.7929 75.7071 144)      //200
	(53.2071 75.7071 144)      //201
	(50.3787 77.1213 144)      //202
	(54.6213 77.1213 144)      //203
	(0 81 144)      //204
	(49.5 81 144)      //205
	(55.5 81 144)      //206
	(145 81 144)      //207
	(50.3787 84.8787 144)      //208
	(54.6213 84.8787 144)      //209
	(51.7929 86.2929 144)      //210
	(53.2071 86.2929 144)      //211
	(52.1464 86.6464 144)      //212
	(52.8536 86.6464 144)      //213
	(52.1464 87.3536 144)      //214
	(52.8536 87.3536 144)      //215
	(51.7929 87.7071 144)      //216
	(53.2071 87.7071 144)      //217
	(50.3787 89.1213 144)      //218
	(54.6213 89.1213 144)      //219
	(0 93 144)      //220
	(49.5 93 144)      //221
	(55.5 93 144)      //222
	(145 93 144)      //223
	(50.3787 96.8787 144)      //224
	(54.6213 96.8787 144)      //225
	(51.7929 98.2929 144)      //226
	(53.2071 98.2929 144)      //227
	(52.1464 98.6464 144)      //228
	(52.8536 98.6464 144)      //229
	(52.1464 99.3536 144)      //230
	(52.8536 99.3536 144)      //231
	(51.7929 99.7071 144)      //232
	(53.2071 99.7071 144)      //233
	(50.3787 101.1213 144)      //234
	(54.6213 101.1213 144)      //235
	(0 105 144)      //236
	(49.5 105 144)      //237
	(55.5 105 144)      //238
	(145 105 144)      //239
	(50.3787 108.8787 144)      //240
	(54.6213 108.8787 144)      //241
	(51.7929 110.2929 144)      //242
	(53.2071 110.2929 144)      //243
	(52.1464 110.6464 144)      //244
	(52.8536 110.6464 144)      //245
	(52.1464 111.3536 144)      //246
	(52.8536 111.3536 144)      //247
	(51.7929 111.7071 144)      //248
	(53.2071 111.7071 144)      //249
	(50.3787 113.1213 144)      //250
	(54.6213 113.1213 144)      //251
	(0 117 144)      //252
	(49.5 117 144)      //253
	(55.5 117 144)      //254
	(145 117 144)      //255
	(0 150 144)      //256
	(49.5 150 144)      //257
	(55.5 150 144)      //258
	(145 150 144)      //259
	(0 0 214)      //260
	(49.5 0 214)      //261
	(55.5 0 214)      //262
	(145 0 214)      //263
	(0 33 214)      //264
	(49.5 33 214)      //265
	(55.5 33 214)      //266
	(145 33 214)      //267
	(50.3787 36.8787 214)      //268
	(54.6213 36.8787 214)      //269
	(51.7929 38.2929 214)      //270
	(53.2071 38.2929 214)      //271
	(52.1464 38.6464 214)      //272
	(52.8536 38.6464 214)      //273
	(52.1464 39.3536 214)      //274
	(52.8536 39.3536 214)      //275
	(51.7929 39.7071 214)      //276
	(53.2071 39.7071 214)      //277
	(50.3787 41.1213 214)      //278
	(54.6213 41.1213 214)      //279
	(0 45 214)      //280
	(49.5 45 214)      //281
	(55.5 45 214)      //282
	(145 45 214)      //283
	(50.3787 48.8787 214)      //284
	(54.6213 48.8787 214)      //285
	(51.7929 50.2929 214)      //286
	(53.2071 50.2929 214)      //287
	(52.1464 50.6464 214)      //288
	(52.8536 50.6464 214)      //289
	(52.1464 51.3536 214)      //290
	(52.8536 51.3536 214)      //291
	(51.7929 51.7071 214)      //292
	(53.2071 51.7071 214)      //293
	(50.3787 53.1213 214)      //294
	(54.6213 53.1213 214)      //295
	(0 57 214)      //296
	(49.5 57 214)      //297
	(55.5 57 214)      //298
	(145 57 214)      //299
	(50.3787 60.8787 214)      //300
	(54.6213 60.8787 214)      //301
	(51.7929 62.2929 214)      //302
	(53.2071 62.2929 214)      //303
	(52.1464 62.6464 214)      //304
	(52.8536 62.6464 214)      //305
	(52.1464 63.3536 214)      //306
	(52.8536 63.3536 214)      //307
	(51.7929 63.7071 214)      //308
	(53.2071 63.7071 214)      //309
	(50.3787 65.1213 214)      //310
	(54.6213 65.1213 214)      //311
	(0 69 214)      //312
	(49.5 69 214)      //313
	(55.5 69 214)      //314
	(145 69 214)      //315
	(50.3787 72.8787 214)      //316
	(54.6213 72.8787 214)      //317
	(51.7929 74.2929 214)      //318
	(53.2071 74.2929 214)      //319
	(52.1464 74.6464 214)      //320
	(52.8536 74.6464 214)      //321
	(52.1464 75.3536 214)      //322
	(52.8536 75.3536 214)      //323
	(51.7929 75.7071 214)      //324
	(53.2071 75.7071 214)      //325
	(50.3787 77.1213 214)      //326
	(54.6213 77.1213 214)      //327
	(0 81 214)      //328
	(49.5 81 214)      //329
	(55.5 81 214)      //330
	(145 81 214)      //331
	(50.3787 84.8787 214)      //332
	(54.6213 84.8787 214)      //333
	(51.7929 86.2929 214)      //334
	(53.2071 86.2929 214)      //335
	(52.1464 86.6464 214)      //336
	(52.8536 86.6464 214)      //337
	(52.1464 87.3536 214)      //338
	(52.8536 87.3536 214)      //339
	(51.7929 87.7071 214)      //340
	(53.2071 87.7071 214)      //341
	(50.3787 89.1213 214)      //342
	(54.6213 89.1213 214)      //343
	(0 93 214)      //344
	(49.5 93 214)      //345
	(55.5 93 214)      //346
	(145 93 214)      //347
	(50.3787 96.8787 214)      //348
	(54.6213 96.8787 214)      //349
	(51.7929 98.2929 214)      //350
	(53.2071 98.2929 214)      //351
	(52.1464 98.6464 214)      //352
	(52.8536 98.6464 214)      //353
	(52.1464 99.3536 214)      //354
	(52.8536 99.3536 214)      //355
	(51.7929 99.7071 214)      //356
	(53.2071 99.7071 214)      //357
	(50.3787 101.1213 214)      //358
	(54.6213 101.1213 214)      //359
	(0 105 214)      //360
	(49.5 105 214)      //361
	(55.5 105 214)      //362
	(145 105 214)      //363
	(50.3787 108.8787 214)      //364
	(54.6213 108.8787 214)      //365
	(51.7929 110.2929 214)      //366
	(53.2071 110.2929 214)      //367
	(52.1464 110.6464 214)      //368
	(52.8536 110.6464 214)      //369
	(52.1464 111.3536 214)      //370
	(52.8536 111.3536 214)      //371
	(51.7929 111.7071 214)      //372
	(53.2071 111.7071 214)      //373
	(50.3787 113.1213 214)      //374
	(54.6213 113.1213 214)      //375
	(0 117 214)      //376
	(49.5 117 214)      //377
	(55.5 117 214)      //378
	(145 117 214)      //379
	(0 150 214)      //380
	(49.5 150 214)      //381
	(55.5 150 214)      //382
	(145 150 214)      //383

);

blocks
(
	hex (0 1 5 4 40 41 45 44) (10 15 5) simpleGrading (0.5 0.5 1)
	hex (4 5 9 8 44 45 57 56) (10 3 5) simpleGrading (0.5 1 1)
	hex (8 9 13 12 56 57 69 68) (10 3 5) simpleGrading (0.5 1 1)
	hex (12 13 17 16 68 69 81 80) (10 3 5) simpleGrading (0.5 1 1)
	hex (16 17 21 20 80 81 93 92) (10 3 5) simpleGrading (0.5 1 1)
	hex (20 21 25 24 92 93 105 104) (10 3 5) simpleGrading (0.5 1 1)
	hex (24 25 29 28 104 105 117 116) (10 3 5) simpleGrading (0.5 1 1)
	hex (28 29 33 32 116 117 129 128) (10 3 5) simpleGrading (0.5 1 1)
	hex (32 33 37 36 128 129 133 132) (10 15 5) simpleGrading (0.5 2 1)

	hex (2 3 7 6 42 43 47 46) (20 15 5) simpleGrading (2 0.5 1)
	hex (6 7 11 10 46 47 59 58) (20 3 5) simpleGrading (2 1 1)
	hex (10 11 15 14 58 59 71 70) (20 3 5) simpleGrading (2 1 1)
	hex (14 15 19 18 70 71 83 82) (20 3 5) simpleGrading (2 1 1)
	hex (18 19 23 22 82 83 95 94) (20 3 5) simpleGrading (2 1 1)
	hex (22 23 27 26 94 95 107 106) (20 3 5) simpleGrading (2 1 1)
	hex (26 27 31 30 106 107 119 118) (20 3 5) simpleGrading (2 1 1)
	hex (30 31 35 34 118 119 131 130) (20 3 5) simpleGrading (2 1 1)
	hex (34 35 39 38 130 131 135 134) (20 15 5) simpleGrading (2 2 1)

	hex (1 2 6 5 41 42 46 45) (3 15 5) simpleGrading (1 0.5 1)
	hex (33 34 38 37 129 130 134 133) (3 15 5) simpleGrading (1 2 1)

	hex (40 41 45 44 136 137 141 140) (10 15 80) simpleGrading (0.5 0.5 1)
	hex (44 45 57 56 140 141 157 156) (10 3 80) simpleGrading (0.5 1 1)
	hex (56 57 69 68 156 157 173 172) (10 3 80) simpleGrading (0.5 1 1)
	hex (68 69 81 80 172 173 189 188) (10 3 80) simpleGrading (0.5 1 1)
	hex (80 81 93 92 188 189 205 204) (10 3 80) simpleGrading (0.5 1 1)
	hex (92 93 105 104 204 205 221 220) (10 3 80) simpleGrading (0.5 1 1)
	hex (104 105 117 116 220 221 237 236) (10 3 80) simpleGrading (0.5 1 1)
	hex (116 117 129 128 236 237 253 252) (10 3 80) simpleGrading (0.5 1 1)
	hex (128 129 133 132 252 253 257 256) (10 15 80) simpleGrading (0.5 2 1)

	hex (42 43 47 46 138 139 143 142) (20 15 80) simpleGrading (2 0.5 1)
	hex (46 47 59 58 142 143 159 158) (20 3 80) simpleGrading (2 1 1)
	hex (58 59 71 70 158 159 175 174) (20 3 80) simpleGrading (2 1 1)
	hex (70 71 83 82 174 175 191 190) (20 3 80) simpleGrading (2 1 1)
	hex (82 83 95 94 190 191 207 206) (20 3 80) simpleGrading (2 1 1)
	hex (94 95 107 106 206 207 223 222) (20 3 80) simpleGrading (2 1 1)
	hex (106 107 119 118 222 223 239 238) (20 3 80) simpleGrading (2 1 1)
	hex (118 119 131 130 238 239 255 254) (20 3 80) simpleGrading (2 1 1)
	hex (130 131 135 134 254 255 259 258) (20 15 80) simpleGrading (2 2 1)

	hex (41 42 46 45 137 138 142 141) (3 15 80) simpleGrading (1 0.5 1)
	hex (129 130 134 133 253 254 258 257) (3 15 80) simpleGrading (1 2 1)

	hex (45 48 54 57 141 144 154 157) (3 3 80) simpleGrading (0.5 1 1)
	hex (46 49 48 45 142 145 144 141) (3 3 80) simpleGrading (0.5 1 1)
	hex (58 55 49 46 158 155 145 142) (3 3 80) simpleGrading (0.5 1 1)
	hex (57 54 55 58 157 154 155 158) (3 3 80) simpleGrading (0.5 1 1)
	hex (48 50 52 54 144 146 152 154) (3 3 80) simpleGrading (0.5 1 1)
	hex (49 51 50 48 145 147 146 144) (3 3 80) simpleGrading (0.5 1 1)
	hex (55 53 51 49 155 153 147 145) (3 3 80) simpleGrading (0.5 1 1)
	hex (54 52 53 55 154 152 153 155) (3 3 80) simpleGrading (0.5 1 1)
	hex (57 60 66 69 157 160 170 173) (3 3 80) simpleGrading (0.5 1 1)
	hex (58 61 60 57 158 161 160 157) (3 3 80) simpleGrading (0.5 1 1)
	hex (70 67 61 58 174 171 161 158) (3 3 80) simpleGrading (0.5 1 1)
	hex (69 66 67 70 173 170 171 174) (3 3 80) simpleGrading (0.5 1 1)
	hex (60 62 64 66 160 162 168 170) (3 3 80) simpleGrading (0.5 1 1)
	hex (61 63 62 60 161 163 162 160) (3 3 80) simpleGrading (0.5 1 1)
	hex (67 65 63 61 171 169 163 161) (3 3 80) simpleGrading (0.5 1 1)
	hex (66 64 65 67 170 168 169 171) (3 3 80) simpleGrading (0.5 1 1)
	hex (69 72 78 81 173 176 186 189) (3 3 80) simpleGrading (0.5 1 1)
	hex (70 73 72 69 174 177 176 173) (3 3 80) simpleGrading (0.5 1 1)
	hex (82 79 73 70 190 187 177 174) (3 3 80) simpleGrading (0.5 1 1)
	hex (81 78 79 82 189 186 187 190) (3 3 80) simpleGrading (0.5 1 1)
	hex (72 74 76 78 176 178 184 186) (3 3 80) simpleGrading (0.5 1 1)
	hex (73 75 74 72 177 179 178 176) (3 3 80) simpleGrading (0.5 1 1)
	hex (79 77 75 73 187 185 179 177) (3 3 80) simpleGrading (0.5 1 1)
	hex (78 76 77 79 186 184 185 187) (3 3 80) simpleGrading (0.5 1 1)
	hex (81 84 90 93 189 192 202 205) (3 3 80) simpleGrading (0.5 1 1)
	hex (82 85 84 81 190 193 192 189) (3 3 80) simpleGrading (0.5 1 1)
	hex (94 91 85 82 206 203 193 190) (3 3 80) simpleGrading (0.5 1 1)
	hex (93 90 91 94 205 202 203 206) (3 3 80) simpleGrading (0.5 1 1)
	hex (84 86 88 90 192 194 200 202) (3 3 80) simpleGrading (0.5 1 1)
	hex (85 87 86 84 193 195 194 192) (3 3 80) simpleGrading (0.5 1 1)
	hex (91 89 87 85 203 201 195 193) (3 3 80) simpleGrading (0.5 1 1)
	hex (90 88 89 91 202 200 201 203) (3 3 80) simpleGrading (0.5 1 1)
	hex (93 96 102 105 205 208 218 221) (3 3 80) simpleGrading (0.5 1 1)
	hex (94 97 96 93 206 209 208 205) (3 3 80) simpleGrading (0.5 1 1)
	hex (106 103 97 94 222 219 209 206) (3 3 80) simpleGrading (0.5 1 1)
	hex (105 102 103 106 221 218 219 222) (3 3 80) simpleGrading (0.5 1 1)
	hex (96 98 100 102 208 210 216 218) (3 3 80) simpleGrading (0.5 1 1)
	hex (97 99 98 96 209 211 210 208) (3 3 80) simpleGrading (0.5 1 1)
	hex (103 101 99 97 219 217 211 209) (3 3 80) simpleGrading (0.5 1 1)
	hex (102 100 101 103 218 216 217 219) (3 3 80) simpleGrading (0.5 1 1)
	hex (105 108 114 117 221 224 234 237) (3 3 80) simpleGrading (0.5 1 1)
	hex (106 109 108 105 222 225 224 221) (3 3 80) simpleGrading (0.5 1 1)
	hex (118 115 109 106 238 235 225 222) (3 3 80) simpleGrading (0.5 1 1)
	hex (117 114 115 118 237 234 235 238) (3 3 80) simpleGrading (0.5 1 1)
	hex (108 110 112 114 224 226 232 234) (3 3 80) simpleGrading (0.5 1 1)
	hex (109 111 110 108 225 227 226 224) (3 3 80) simpleGrading (0.5 1 1)
	hex (115 113 111 109 235 233 227 225) (3 3 80) simpleGrading (0.5 1 1)
	hex (114 112 113 115 234 232 233 235) (3 3 80) simpleGrading (0.5 1 1)
	hex (117 120 126 129 237 240 250 253) (3 3 80) simpleGrading (0.5 1 1)
	hex (118 121 120 117 238 241 240 237) (3 3 80) simpleGrading (0.5 1 1)
	hex (130 127 121 118 254 251 241 238) (3 3 80) simpleGrading (0.5 1 1)
	hex (129 126 127 130 253 250 251 254) (3 3 80) simpleGrading (0.5 1 1)
	hex (120 122 124 126 240 242 248 250) (3 3 80) simpleGrading (0.5 1 1)
	hex (121 123 122 120 241 243 242 240) (3 3 80) simpleGrading (0.5 1 1)
	hex (127 125 123 121 251 249 243 241) (3 3 80) simpleGrading (0.5 1 1)
	hex (126 124 125 127 250 248 249 251) (3 3 80) simpleGrading (0.5 1 1)

	hex (136 137 141 140 260 261 265 264) (10 15 40) simpleGrading (0.5 0.5 1)
	hex (140 141 157 156 264 265 281 280) (10 3 40) simpleGrading (0.5 1 1)
	hex (156 157 173 172 280 281 297 296) (10 3 40) simpleGrading (0.5 1 1)
	hex (172 173 189 188 296 297 313 312) (10 3 40) simpleGrading (0.5 1 1)
	hex (188 189 205 204 312 313 329 328) (10 3 40) simpleGrading (0.5 1 1)
	hex (204 205 221 220 328 329 345 344) (10 3 40) simpleGrading (0.5 1 1)
	hex (220 221 237 236 344 345 361 360) (10 3 40) simpleGrading (0.5 1 1)
	hex (236 237 253 252 360 361 377 376) (10 3 40) simpleGrading (0.5 1 1)
	hex (252 253 257 256 376 377 381 380) (10 15 40) simpleGrading (0.5 2 1)

	hex (138 139 143 142 262 263 267 266) (20 15 40) simpleGrading (2 0.5 1)
	hex (142 143 159 158 266 267 283 282) (20 3 40) simpleGrading (2 1 1)
	hex (158 159 175 174 282 283 299 298) (20 3 40) simpleGrading (2 1 1)
	hex (174 175 191 190 298 299 315 314) (20 3 40) simpleGrading (2 1 1)
	hex (190 191 207 206 314 315 331 330) (20 3 40) simpleGrading (2 1 1)
	hex (206 207 223 222 330 331 347 346) (20 3 40) simpleGrading (2 1 1)
	hex (222 223 239 238 346 347 363 362) (20 3 40) simpleGrading (2 1 1)
	hex (238 239 255 254 362 363 379 378) (20 3 40) simpleGrading (2 1 1)
	hex (254 255 259 258 378 379 383 382) (20 15 40) simpleGrading (2 2 1)

	hex (137 138 142 141 261 262 266 265) (3 15 40) simpleGrading (1 0.5 1)
	hex (253 254 258 257 377 378 382 381) (3 15 40) simpleGrading (1 2 1)

	hex (141 144 154 157 265 268 278 281) (3 3 40) simpleGrading (0.5 1 1)
	hex (142 145 144 141 266 269 268 265) (3 3 40) simpleGrading (0.5 1 1)
	hex (158 155 145 142 282 279 269 266) (3 3 40) simpleGrading (0.5 1 1)
	hex (157 154 155 158 281 278 279 282) (3 3 40) simpleGrading (0.5 1 1)
	hex (144 146 152 154 268 270 276 278) (3 3 40) simpleGrading (0.5 1 1)
	hex (145 147 146 144 269 271 270 268) (3 3 40) simpleGrading (0.5 1 1)
	hex (155 153 147 145 279 277 271 269) (3 3 40) simpleGrading (0.5 1 1)
	hex (154 152 153 155 278 276 277 279) (3 3 40) simpleGrading (0.5 1 1)
	hex (157 160 170 173 281 284 294 297) (3 3 40) simpleGrading (0.5 1 1)
	hex (158 161 160 157 282 285 284 281) (3 3 40) simpleGrading (0.5 1 1)
	hex (174 171 161 158 298 295 285 282) (3 3 40) simpleGrading (0.5 1 1)
	hex (173 170 171 174 297 294 295 298) (3 3 40) simpleGrading (0.5 1 1)
	hex (160 162 168 170 284 286 292 294) (3 3 40) simpleGrading (0.5 1 1)
	hex (161 163 162 160 285 287 286 284) (3 3 40) simpleGrading (0.5 1 1)
	hex (171 169 163 161 295 293 287 285) (3 3 40) simpleGrading (0.5 1 1)
	hex (170 168 169 171 294 292 293 295) (3 3 40) simpleGrading (0.5 1 1)
	hex (173 176 186 189 297 300 310 313) (3 3 40) simpleGrading (0.5 1 1)
	hex (174 177 176 173 298 301 300 297) (3 3 40) simpleGrading (0.5 1 1)
	hex (190 187 177 174 314 311 301 298) (3 3 40) simpleGrading (0.5 1 1)
	hex (189 186 187 190 313 310 311 314) (3 3 40) simpleGrading (0.5 1 1)
	hex (176 178 184 186 300 302 308 310) (3 3 40) simpleGrading (0.5 1 1)
	hex (177 179 178 176 301 303 302 300) (3 3 40) simpleGrading (0.5 1 1)
	hex (187 185 179 177 311 309 303 301) (3 3 40) simpleGrading (0.5 1 1)
	hex (186 184 185 187 310 308 309 311) (3 3 40) simpleGrading (0.5 1 1)
	hex (189 192 202 205 313 316 326 329) (3 3 40) simpleGrading (0.5 1 1)
	hex (190 193 192 189 314 317 316 313) (3 3 40) simpleGrading (0.5 1 1)
	hex (206 203 193 190 330 327 317 314) (3 3 40) simpleGrading (0.5 1 1)
	hex (205 202 203 206 329 326 327 330) (3 3 40) simpleGrading (0.5 1 1)
	hex (192 194 200 202 316 318 324 326) (3 3 40) simpleGrading (0.5 1 1)
	hex (193 195 194 192 317 319 318 316) (3 3 40) simpleGrading (0.5 1 1)
	hex (203 201 195 193 327 325 319 317) (3 3 40) simpleGrading (0.5 1 1)
	hex (202 200 201 203 326 324 325 327) (3 3 40) simpleGrading (0.5 1 1)
	hex (205 208 218 221 329 332 342 345) (3 3 40) simpleGrading (0.5 1 1)
	hex (206 209 208 205 330 333 332 329) (3 3 40) simpleGrading (0.5 1 1)
	hex (222 219 209 206 346 343 333 330) (3 3 40) simpleGrading (0.5 1 1)
	hex (221 218 219 222 345 342 343 346) (3 3 40) simpleGrading (0.5 1 1)
	hex (208 210 216 218 332 334 340 342) (3 3 40) simpleGrading (0.5 1 1)
	hex (209 211 210 208 333 335 334 332) (3 3 40) simpleGrading (0.5 1 1)
	hex (219 217 211 209 343 341 335 333) (3 3 40) simpleGrading (0.5 1 1)
	hex (218 216 217 219 342 340 341 343) (3 3 40) simpleGrading (0.5 1 1)
	hex (221 224 234 237 345 348 358 361) (3 3 40) simpleGrading (0.5 1 1)
	hex (222 225 224 221 346 349 348 345) (3 3 40) simpleGrading (0.5 1 1)
	hex (238 235 225 222 362 359 349 346) (3 3 40) simpleGrading (0.5 1 1)
	hex (237 234 235 238 361 358 359 362) (3 3 40) simpleGrading (0.5 1 1)
	hex (224 226 232 234 348 350 356 358) (3 3 40) simpleGrading (0.5 1 1)
	hex (225 227 226 224 349 351 350 348) (3 3 40) simpleGrading (0.5 1 1)
	hex (235 233 227 225 359 357 351 349) (3 3 40) simpleGrading (0.5 1 1)
	hex (234 232 233 235 358 356 357 359) (3 3 40) simpleGrading (0.5 1 1)
	hex (237 240 250 253 361 364 374 377) (3 3 40) simpleGrading (0.5 1 1)
	hex (238 241 240 237 362 365 364 361) (3 3 40) simpleGrading (0.5 1 1)
	hex (254 251 241 238 378 375 365 362) (3 3 40) simpleGrading (0.5 1 1)
	hex (253 250 251 254 377 374 375 378) (3 3 40) simpleGrading (0.5 1 1)
	hex (240 242 248 250 364 366 372 374) (3 3 40) simpleGrading (0.5 1 1)
	hex (241 243 242 240 365 367 366 364) (3 3 40) simpleGrading (0.5 1 1)
	hex (251 249 243 241 375 373 367 365) (3 3 40) simpleGrading (0.5 1 1)
	hex (250 248 249 251 374 372 373 375) (3 3 40) simpleGrading (0.5 1 1)

	hex (148 149 151 150 272 273 275 274) (3 3 40) simpleGrading (1 1 1)
	hex (146 148 150 152 270 272 274 276) (3 3 40) simpleGrading (1 1 1)
	hex (147 149 148 146 271 273 272 270) (3 3 40) simpleGrading (1 1 1)
	hex (153 151 149 147 277 275 273 271) (3 3 40) simpleGrading (1 1 1)
	hex (152 150 151 153 276 274 275 277) (3 3 40) simpleGrading (1 1 1)
	hex (164 165 167 166 288 289 291 290) (3 3 40) simpleGrading (1 1 1)
	hex (162 164 166 168 286 288 290 292) (3 3 40) simpleGrading (1 1 1)
	hex (163 165 164 162 287 289 288 286) (3 3 40) simpleGrading (1 1 1)
	hex (169 167 165 163 293 291 289 287) (3 3 40) simpleGrading (1 1 1)
	hex (168 166 167 169 292 290 291 293) (3 3 40) simpleGrading (1 1 1)
	hex (180 181 183 182 304 305 307 306) (3 3 40) simpleGrading (1 1 1)
	hex (178 180 182 184 302 304 306 308) (3 3 40) simpleGrading (1 1 1)
	hex (179 181 180 178 303 305 304 302) (3 3 40) simpleGrading (1 1 1)
	hex (185 183 181 179 309 307 305 303) (3 3 40) simpleGrading (1 1 1)
	hex (184 182 183 185 308 306 307 309) (3 3 40) simpleGrading (1 1 1)
	hex (196 197 199 198 320 321 323 322) (3 3 40) simpleGrading (1 1 1)
	hex (194 196 198 200 318 320 322 324) (3 3 40) simpleGrading (1 1 1)
	hex (195 197 196 194 319 321 320 318) (3 3 40) simpleGrading (1 1 1)
	hex (201 199 197 195 325 323 321 319) (3 3 40) simpleGrading (1 1 1)
	hex (200 198 199 201 324 322 323 325) (3 3 40) simpleGrading (1 1 1)
	hex (212 213 215 214 336 337 339 338) (3 3 40) simpleGrading (1 1 1)
	hex (210 212 214 216 334 336 338 340) (3 3 40) simpleGrading (1 1 1)
	hex (211 213 212 210 335 337 336 334) (3 3 40) simpleGrading (1 1 1)
	hex (217 215 213 211 341 339 337 335) (3 3 40) simpleGrading (1 1 1)
	hex (216 214 215 217 340 338 339 341) (3 3 40) simpleGrading (1 1 1)
	hex (228 229 231 230 352 353 355 354) (3 3 40) simpleGrading (1 1 1)
	hex (226 228 230 232 350 352 354 356) (3 3 40) simpleGrading (1 1 1)
	hex (227 229 228 226 351 353 352 350) (3 3 40) simpleGrading (1 1 1)
	hex (233 231 229 227 357 355 353 351) (3 3 40) simpleGrading (1 1 1)
	hex (232 230 231 233 356 354 355 357) (3 3 40) simpleGrading (1 1 1)
	hex (244 245 247 246 368 369 371 370) (3 3 40) simpleGrading (1 1 1)
	hex (242 244 246 248 366 368 370 372) (3 3 40) simpleGrading (1 1 1)
	hex (243 245 244 242 367 369 368 366) (3 3 40) simpleGrading (1 1 1)
	hex (249 247 245 243 373 371 369 367) (3 3 40) simpleGrading (1 1 1)
	hex (248 246 247 249 372 370 371 373) (3 3 40) simpleGrading (1 1 1)

);

edges
(
	arc 48 49 (52.5 36.0 4)
	arc 49 55 (55.5 39.0 4)
	arc 55 54 (52.5 42.0 4)
	arc 54 48 (49.5 39.0 4)
	arc 60 61 (52.5 48.0 4)
	arc 61 67 (55.5 51.0 4)
	arc 67 66 (52.5 54.0 4)
	arc 66 60 (49.5 51.0 4)
	arc 72 73 (52.5 60.0 4)
	arc 73 79 (55.5 63.0 4)
	arc 79 78 (52.5 66.0 4)
	arc 78 72 (49.5 63.0 4)
	arc 84 85 (52.5 72.0 4)
	arc 85 91 (55.5 75.0 4)
	arc 91 90 (52.5 78.0 4)
	arc 90 84 (49.5 75.0 4)
	arc 96 97 (52.5 84.0 4)
	arc 97 103 (55.5 87.0 4)
	arc 103 102 (52.5 90.0 4)
	arc 102 96 (49.5 87.0 4)
	arc 108 109 (52.5 96.0 4)
	arc 109 115 (55.5 99.0 4)
	arc 115 114 (52.5 102.0 4)
	arc 114 108 (49.5 99.0 4)
	arc 120 121 (52.5 108.0 4)
	arc 121 127 (55.5 111.0 4)
	arc 127 126 (52.5 114.0 4)
	arc 126 120 (49.5 111.0 4)

	arc 50 51 (52.5 38.0 4)
	arc 51 53 (53.5 39.0 4)
	arc 53 52 (52.5 40.0 4)
	arc 52 50 (51.5 39.0 4)
	arc 62 63 (52.5 50.0 4)
	arc 63 65 (53.5 51.0 4)
	arc 65 64 (52.5 52.0 4)
	arc 64 62 (51.5 51.0 4)
	arc 74 75 (52.5 62.0 4)
	arc 75 77 (53.5 63.0 4)
	arc 77 76 (52.5 64.0 4)
	arc 76 74 (51.5 63.0 4)
	arc 86 87 (52.5 74.0 4)
	arc 87 89 (53.5 75.0 4)
	arc 89 88 (52.5 76.0 4)
	arc 88 86 (51.5 75.0 4)
	arc 98 99 (52.5 86.0 4)
	arc 99 101 (53.5 87.0 4)
	arc 101 100 (52.5 88.0 4)
	arc 100 98 (51.5 87.0 4)
	arc 110 111 (52.5 98.0 4)
	arc 111 113 (53.5 99.0 4)
	arc 113 112 (52.5 100.0 4)
	arc 112 110 (51.5 99.0 4)
	arc 122 123 (52.5 110.0 4)
	arc 123 125 (53.5 111.0 4)
	arc 125 124 (52.5 112.0 4)
	arc 124 122 (51.5 111.0 4)

	arc 144 145 (52.5 36.0 144)
	arc 145 155 (55.5 39.0 144)
	arc 155 154 (52.5 42.0 144)
	arc 154 144 (49.5 39.0 144)
	arc 160 161 (52.5 48.0 144)
	arc 161 171 (55.5 51.0 144)
	arc 171 170 (52.5 54.0 144)
	arc 170 160 (49.5 51.0 144)
	arc 176 177 (52.5 60.0 144)
	arc 177 187 (55.5 63.0 144)
	arc 187 186 (52.5 66.0 144)
	arc 186 176 (49.5 63.0 144)
	arc 192 193 (52.5 72.0 144)
	arc 193 203 (55.5 75.0 144)
	arc 203 202 (52.5 78.0 144)
	arc 202 192 (49.5 75.0 144)
	arc 208 209 (52.5 84.0 144)
	arc 209 219 (55.5 87.0 144)
	arc 219 218 (52.5 90.0 144)
	arc 218 208 (49.5 87.0 144)
	arc 224 225 (52.5 96.0 144)
	arc 225 235 (55.5 99.0 144)
	arc 235 234 (52.5 102.0 144)
	arc 234 224 (49.5 99.0 144)
	arc 240 241 (52.5 108.0 144)
	arc 241 251 (55.5 111.0 144)
	arc 251 250 (52.5 114.0 144)
	arc 250 240 (49.5 111.0 144)

	arc 146 147 (52.5 38.0 144)
	arc 147 153 (53.5 39.0 144)
	arc 153 152 (52.5 40.0 144)
	arc 152 146 (51.5 39.0 144)
	arc 162 163 (52.5 50.0 144)
	arc 163 169 (53.5 51.0 144)
	arc 169 168 (52.5 52.0 144)
	arc 168 162 (51.5 51.0 144)
	arc 178 179 (52.5 62.0 144)
	arc 179 185 (53.5 63.0 144)
	arc 185 184 (52.5 64.0 144)
	arc 184 178 (51.5 63.0 144)
	arc 194 195 (52.5 74.0 144)
	arc 195 201 (53.5 75.0 144)
	arc 201 200 (52.5 76.0 144)
	arc 200 194 (51.5 75.0 144)
	arc 210 211 (52.5 86.0 144)
	arc 211 217 (53.5 87.0 144)
	arc 217 216 (52.5 88.0 144)
	arc 216 210 (51.5 87.0 144)
	arc 226 227 (52.5 98.0 144)
	arc 227 233 (53.5 99.0 144)
	arc 233 232 (52.5 100.0 144)
	arc 232 226 (51.5 99.0 144)
	arc 242 243 (52.5 110.0 144)
	arc 243 249 (53.5 111.0 144)
	arc 249 248 (52.5 112.0 144)
	arc 248 242 (51.5 111.0 144)

	arc 268 269 (52.5 36.0 214.0)
	arc 269 279 (55.5 39.0 214.0)
	arc 279 278 (52.5 42.0 214.0)
	arc 278 268 (49.5 39.0 214.0)
	arc 284 285 (52.5 48.0 214.0)
	arc 285 295 (55.5 51.0 214.0)
	arc 295 294 (52.5 54.0 214.0)
	arc 294 284 (49.5 51.0 214.0)
	arc 300 301 (52.5 60.0 214.0)