/*--------------------------------*- C++ -*----------------------------------*\
| =========                 |                                                 |
| \      /  F ield         | foam-extend: Open Source CFD                    |
|  \    /   O peration     | Version:     4.0                                |
|   \  /    A nd           | Web:         http://www.foam-extend.org         |
|    \/     M anipulation  |                                                 |
\*---------------------------------------------------------------------------*/
FoamFile
{
    version     2.0;
    format      ascii;
    class       dictionary;
    object      blockMeshDict;
}
// * * * * * * * * * * * * * * * * * * * * * * * * * * * * * * * * * * * * * //

convertToMeters 0.001;
vertices
(
	(0 0 0)      //0
	(11.2 0 0)      //1
	(22.4 0 0)      //2
	(33.6 0 0)      //3
	(0 6.5333 0)      //4
	(11.2 6.5333 0)      //5
	(22.4 6.5333 0)      //6
	(33.6 6.5333 0)      //7
	(0 13.0667 0)      //8
	(11.2 13.0667 0)      //9
	(22.4 13.0667 0)      //10
	(33.6 13.0667 0)      //11
	(0 19.6 0)      //12
	(11.2 19.6 0)      //13
	(22.4 19.6 0)      //14
	(33.6 19.6 0)      //15
	(0 26.1333 0)      //16
	(11.2 26.1333 0)      //17
	(22.4 26.1333 0)      //18
	(33.6 26.1333 0)      //19
	(0 32.6667 0)      //20
	(11.2 32.6667 0)      //21
	(22.4 32.6667 0)      //22
	(33.6 32.6667 0)      //23
	(0 39.2 0)      //24
	(11.2 39.2 0)      //25
	(22.4 39.2 0)      //26
	(33.6 39.2 0)      //27
	(0 45.7333 0)      //28
	(11.2 45.7333 0)      //29
	(22.4 45.7333 0)      //30
	(33.6 45.7333 0)      //31
	(0 0 2)      //32
	(11.2 0 2)      //33
	(22.4 0 2)      //34
	(33.6 0 2)      //35
	(0 6.5333 2)      //36
	(11.2 6.5333 2)      //37
	(22.4 6.5333 2)      //38
	(33.6 6.5333 2)      //39
	(16.14 9.14 2)      //40
	(17.46 9.14 2)      //41
	(16.14 10.46 2)      //42
	(17.46 10.46 2)      //43
	(0 13.0667 2)      //44
	(11.2 13.0667 2)      //45
	(22.4 13.0667 2)      //46
	(33.6 13.0667 2)      //47
	(16.14 15.6734 2)      //48
	(17.46 15.6734 2)      //49
	(16.14 16.9933 2)      //50
	(17.46 16.9933 2)      //51
	(0 19.6 2)      //52
	(11.2 19.6 2)      //53
	(22.4 19.6 2)      //54
	(33.6 19.6 2)      //55
	(16.14 22.2067 2)      //56
	(17.46 22.2067 2)      //57
	(16.14 23.5266 2)      //58
	(17.46 23.5266 2)      //59
	(0 26.1333 2)      //60
	(11.2 26.1333 2)      //61
	(22.4 26.1333 2)      //62
	(33.6 26.1333 2)      //63
	(16.14 28.74 2)      //64
	(17.46 28.74 2)      //65
	(16.14 30.06 2)      //66
	(17.46 30.06 2)      //67
	(0 32.6667 2)      //68
	(11.2 32.6667 2)      //69
	(22.4 32.6667 2)      //70
	(33.6 32.6667 2)      //71
	(16.14 35.2734 2)      //72
	(17.46 35.2734 2)      //73
	(16.14 36.5933 2)      //74
	(17.46 36.5933 2)      //75
	(0 39.2 2)      //76
	(11.2 39.2 2)      //77
	(22.4 39.2 2)      //78
	(33.6 39.2 2)      //79
	(0 45.7333 2)      //80
	(11.2 45.7333 2)      //81
	(22.4 45.7333 2)      //82
	(33.6 45.7333 2)      //83
	(0 0 102)      //84
	(11.2 0 102)      //85
	(22.4 0 102)      //86
	(33.6 0 102)      //87
	(0 6.5333 102)      //88
	(11.2 6.5333 102)      //89
	(22.4 6.5333 102)      //90
	(33.6 6.5333 102)      //91
	(16.14 9.14 102)      //92
	(17.46 9.14 102)      //93
	(16.47 9.47 102)      //94
	(17.13 9.47 102)      //95
	(16.47 10.13 102)      //96
	(17.13 10.13 102)      //97
	(16.14 10.46 102)      //98
	(17.46 10.46 102)      //99
	(0 13.0667 102)      //100
	(11.2 13.0667 102)      //101
	(22.4 13.0667 102)      //102
	(33.6 13.0667 102)      //103
	(16.14 15.6734 102)      //104
	(17.46 15.6734 102)      //105
	(16.47 16.0034 102)      //106
	(17.13 16.0034 102)      //107
	(16.47 16.6633 102)      //108
	(17.13 16.6633 102)      //109
	(16.14 16.9933 102)      //110
	(17.46 16.9933 102)      //111
	(0 19.6 102)      //112
	(11.2 19.6 102)      //113
	(22.4 19.6 102)      //114
	(33.6 19.6 102)      //115
	(16.14 22.2067 102)      //116
	(17.46 22.2067 102)      //117
	(16.47 22.5367 102)      //118
	(17.13 22.5367 102)      //119
	(16.47 23.1966 102)      //120
	(17.13 23.1966 102)      //121
	(16.14 23.5266 102)      //122
	(17.46 23.5266 102)      //123
	(0 26.1333 102)      //124
	(11.2 26.1333 102)      //125
	(22.4 26.1333 102)      //126
	(33.6 26.1333 102)      //127
	(16.14 28.74 102)      //128
	(17.46 28.74 102)      //129
	(16.47 29.07 102)      //130
	(17.13 29.07 102)      //131
	(16.47 29.73 102)      //132
	(17.13 29.73 102)      //133
	(16.14 30.06 102)      //134
	(17.46 30.06 102)      //135
	(0 32.6667 102)      //136
	(11.2 32.6667 102)      //137
	(22.4 32.6667 102)      //138
	(33.6 32.6667 102)      //139
	(16.14 35.2734 102)      //140
	(17.46 35.2734 102)      //141
	(16.47 35.6034 102)      //142
	(17.13 35.6034 102)      //143
	(16.47 36.2633 102)      //144
	(17.13 36.2633 102)      //145
	(16.14 36.5933 102)      //146
	(17.46 36.5933 102)      //147
	(0 39.2 102)      //148
	(11.2 39.2 102)      //149
	(22.4 39.2 102)      //150
	(33.6 39.2 102)      //151
	(0 45.7333 102)      //152
	(11.2 45.7333 102)      //153
	(22.4 45.7333 102)      //154
	(33.6 45.7333 102)      //155
	(0 0 135.3333)      //156
	(11.2 0 135.3333)      //157
	(22.4 0 135.3333)      //158
	(33.6 0 135.3333)      //159
	(0 6.5333 135.3333)      //160
	(11.2 6.5333 135.3333)      //161
	(22.4 6.5333 135.3333)      //162
	(33.6 6.5333 135.3333)      //163
	(16.14 9.14 135.3333)      //164
	(17.46 9.14 135.3333)      //165
	(16.47 9.47 135.3333)      //166
	(17.13 9.47 135.3333)      //167
	(16.47 10.13 135.3333)      //168
	(17.13 10.13 135.3333)      //169
	(16.14 10.46 135.3333)      //170
	(17.46 10.46 135.3333)      //171
	(0 13.0667 135.3333)      //172
	(11.2 13.0667 135.3333)      //173
	(22.4 13.0667 135.3333)      //174
	(33.6 13.0667 135.3333)      //175
	(16.14 15.6734 135.3333)      //176
	(17.46 15.6734 135.3333)      //177
	(16.47 16.0034 135.3333)      //178
	(17.13 16.0034 135.3333)      //179
	(16.47 16.6633 135.3333)      //180
	(17.13 16.6633 135.3333)      //181
	(16.14 16.9933 135.3333)      //182
	(17.46 16.9933 135.3333)      //183
	(0 19.6 135.3333)      //184
	(11.2 19.6 135.3333)      //185
	(22.4 19.6 135.3333)      //186
	(33.6 19.6 135.3333)      //187
	(16.14 22.2067 135.3333)      //188
	(17.46 22.2067 135.3333)      //189
	(16.47 22.5367 135.3333)      //190
	(17.13 22.5367 135.3333)      //191
	(16.47 23.1966 135.3333)      //192
	(17.13 23.1966 135.3333)      //193
	(16.14 23.5266 135.3333)      //194
	(17.46 23.5266 135.3333)      //195
	(0 26.1333 135.3333)      //196
	(11.2 26.1333 135.3333)      //197
	(22.4 26.1333 135.3333)      //198
	(33.6 26.1333 135.3333)      //199
	(16.14 28.74 135.3333)      //200
	(17.46 28.74 135.3333)      //201
	(16.47 29.07 135.3333)      //202
	(17.13 29.07 135.3333)      //203
	(16.47 29.73 135.3333)      //204
	(17.13 29.73 135.3333)      //205
	(16.14 30.06 135.3333)      //206
	(17.46 30.06 135.3333)      //207
	(0 32.6667 135.3333)      //208
	(11.2 32.6667 135.3333)      //209
	(22.4 32.6667 135.3333)      //210
	(33.6 32.6667 135.3333)      //211
	(16.14 35.2734 135.3333)      //212
	(17.46 35.2734 135.3333)      //213
	(16.47 35.6034 135.3333)      //214
	(17.13 35.6034 135.3333)      //215
	(16.47 36.2633 135.3333)      //216
	(17.13 36.2633 135.3333)      //217
	(16.14 36.5933 135.3333)      //218
	(17.46 36.5933 135.3333)      //219
	(0 39.2 135.3333)      //220
	(11.2 39.2 135.3333)      //221
	(22.4 39.2 135.3333)      //222
	(33.6 39.2 135.3333)      //223
	(0 45.7333 135.3333)      //224
	(11.2 45.7333 135.3333)      //225
	(22.4 45.7333 135.3333)      //226
	(33.6 45.7333 135.3333)      //227

);

blocks
(
	hex (0 1 5 4 32 33 37 36) (10 10 1) simpleGrading (1 1 1)
	hex (4 5 9 8 36 37 45 44) (10 10 1) simpleGrading (1 1 1)
	hex (8 9 13 12 44 45 53 52) (10 10 1) simpleGrading (1 1 1)
	hex (12 13 17 16 52 53 61 60) (10 10 1) simpleGrading (1 1 1)
	hex (16 17 21 20 60 61 69 68) (10 10 1) simpleGrading (1 1 1)
	hex (20 21 25 24 68 69 77 76) (10 10 1) simpleGrading (1 1 1)
	hex (24 25 29 28 76 77 81 80) (10 10 1) simpleGrading (1 1 1)

	hex (2 3 7 6 34 35 39 38) (10 10 1) simpleGrading (1 1 1)
	hex (6 7 11 10 38 39 47 46) (10 10 1) simpleGrading (1 1 1)
	hex (10 11 15 14 46 47 55 54) (10 10 1) simpleGrading (1 1 1)
	hex (14 15 19 18 54 55 63 62) (10 10 1) simpleGrading (1 1 1)
	hex (18 19 23 22 62 63 71 70) (10 10 1) simpleGrading (1 1 1)
	hex (22 23 27 26 70 71 79 78) (10 10 1) simpleGrading (1 1 1)
	hex (26 27 31 30 78 79 83 82) (10 10 1) simpleGrading (1 1 1)

	hex (1 2 6 5 33 34 38 37) (10 10 1) simpleGrading (1 1 1)
	hex (25 26 30 29 77 78 82 81) (10 10 1) simpleGrading (1 1 1)

	hex (32 33 37 36 84 85 89 88) (10 10 40) simpleGrading (1 1 1)
	hex (36 37 45 44 88 89 101 100) (10 10 40) simpleGrading (1 1 1)
	hex (44 45 53 52 100 101 113 112) (10 10 40) simpleGrading (1 1 1)
	hex (52 53 61 60 112 113 125 124) (10 10 40) simpleGrading (1 1 1)
	hex (60 61 69 68 124 125 137 136) (10 10 40) simpleGrading (1 1 1)
	hex (68 69 77 76 136 137 149 148) (10 10 40) simpleGrading (1 1 1)
	hex (76 77 81 80 148 149 153 152) (10 10 40) simpleGrading (1 1 1)

	hex (34 35 39 38 86 87 91 90) (10 10 40) simpleGrading (1 1 1)
	hex (38 39 47 46 90 91 103 102) (10 10 40) simpleGrading (1 1 1)
	hex (46 47 55 54 102 103 115 114) (10 10 40) simpleGrading (1 1 1)
	hex (54 55 63 62 114 115 127 126) (10 10 40) simpleGrading (1 1 1)
	hex (62 63 71 70 126 127 139 138) (10 10 40) simpleGrading (1 1 1)
	hex (70 71 79 78 138 139 151 150) (10 10 40) simpleGrading (1 1 1)
	hex (78 79 83 82 150 151 155 154) (10 10 40) simpleGrading (1 1 1)

	hex (33 34 38 37 85 86 90 89) (10 10 40) simpleGrading (1 1 1)
	hex (77 78 82 81 149 150 154 153) (10 10 40) simpleGrading (1 1 1)

	hex (37 40 42 45 89 92 98 101) (10 10 40) simpleGrading (1 1 1)
	hex (38 41 40 37 90 93 92 89) (10 10 40) simpleGrading (1 1 1)
	hex (46 43 41 38 102 99 93 90) (10 10 40) simpleGrading (1 1 1)
	hex (45 42 43 46 101 98 99 102) (10 10 40) simpleGrading (1 1 1)
	hex (45 48 50 53 101 104 110 113) (10 10 40) simpleGrading (1 1 1)
	hex (46 49 48 45 102 105 104 101) (10 10 40) simpleGrading (1 1 1)
	hex (54 51 49 46 114 111 105 102) (10 10 40) simpleGrading (1 1 1)
	hex (53 50 51 54 113 110 111 114) (10 10 40) simpleGrading (1 1 1)
	hex (53 56 58 61 113 116 122 125) (10 10 40) simpleGrading (1 1 1)
	hex (54 57 56 53 114 117 116 113) (10 10 40) simpleGrading (1 1 1)
	hex (62 59 57 54 126 123 117 114) (10 10 40) simpleGrading (1 1 1)
	hex (61 58 59 62 125 122 123 126) (10 10 40) simpleGrading (1 1 1)
	hex (61 64 66 69 125 128 134 137) (10 10 40) simpleGrading (1 1 1)
	hex (62 65 64 61 126 129 128 125) (10 10 40) simpleGrading (1 1 1)
	hex (70 67 65 62 138 135 129 126) (10 10 40) simpleGrading (1 1 1)
	hex (69 66 67 70 137 134 135 138) (10 10 40) simpleGrading (1 1 1)
	hex (69 72 74 77 137 140 146 149) (10 10 40) simpleGrading (1 1 1)
	hex (70 73 72 69 138 141 140 137) (10 10 40) simpleGrading (1 1 1)
	hex (78 75 73 70 150 147 141 138) (10 10 40) simpleGrading (1 1 1)
	hex (77 74 75 78 149 146 147 150) (10 10 40) simpleGrading (1 1 1)

	hex (84 85 89 88 156 157 161 160) (10 10 13) simpleGrading (1 1 1)
	hex (88 89 101 100 160 161 173 172) (10 10 13) simpleGrading (1 1 1)
	hex (100 101 113 112 172 173 185 184) (10 10 13) simpleGrading (1 1 1)
	hex (112 113 125 124 184 185 197 196) (10 10 13) simpleGrading (1 1 1)
	hex (124 125 137 136 196 197 209 208) (10 10 13) simpleGrading (1 1 1)
	hex (136 137 149 148 208 209 221 220) (10 10 13) simpleGrading (1 1 1)
	hex (148 149 153 152 220 221 225 224) (10 10 13) simpleGrading (1 1 1)

	hex (86 87 91 90 158 159 163 162) (10 10 13) simpleGrading (1 1 1)
	hex (90 91 103 102 162 163 175 174) (10 10 13) simpleGrading (1 1 1)
	hex (102 103 115 114 174 175 187 186) (10 10 13) simpleGrading (1 1 1)
	hex (114 115 127 126 186 187 199 198) (10 10 13) simpleGrading (1 1 1)
	hex (126 127 139 138 198 199 211 210) (10 10 13) simpleGrading (1 1 1)
	hex (138 139 151 150 210 211 223 222) (10 10 13) simpleGrading (1 1 1)
	hex (150 151 155 154 222 223 227 226) (10 10 13) simpleGrading (1 1 1)

	hex (85 86 90 89 157 158 162 161) (10 10 13) simpleGrading (1 1 1)
	hex (149 150 154 153 221 222 226 225) (10 10 13) simpleGrading (1 1 1)

	hex (89 92 98 101 161 164 170 173) (10 10 13) simpleGrading (1 1 1)
	hex (90 93 92 89 162 165 164 161) (10 10 13) simpleGrading (1 1 1)
	hex (102 99 93 90 174 171 165 162) (10 10 13) simpleGrading (1 1 1)
	hex (101 98 99 102 173 170 171 174) (10 10 13) simpleGrading (1 1 1)
	hex (101 104 110 113 173 176 182 185) (10 10 13) simpleGrading (1 1 1)
	hex (102 105 104 101 174 177 176 173) (10 10 13) simpleGrading (1 1 1)
	hex (114 111 105 102 186 183 177 174) (10 10 13) simpleGrading (1 1 1)
	hex (113 110 111 114 185 182 183 186) (10 10 13) simpleGrading (1 1 1)
	hex (113 116 122 125 185 188 194 197) (10 10 13) simpleGrading (1 1 1)
	hex (114 117 116 113 186 189 188 185) (10 10 13) simpleGrading (1 1 1)
	hex (126 123 117 114 198 195 189 186) (10 10 13) simpleGrading (1 1 1)
	hex (125 122 123 126 197 194 195 198) (10 10 13) simpleGrading (1 1 1)
	hex (125 128 134 137 197 200 206 209) (10 10 13) simpleGrading (1 1 1)
	hex (126 129 128 125 198 201 200 197) (10 10 13) simpleGrading (1 1 1)
	hex (138 135 129 126 210 207 201 198) (10 10 13) simpleGrading (1 1 1)
	hex (137 134 135 138 209 206 207 210) (10 10 13) simpleGrading (1 1 1)
	hex (137 140 146 149 209 212 218 221) (10 10 13) simpleGrading (1 1 1)
	hex (138 141 140 137 210 213 212 209) (10 10 13) simpleGrading (1 1 1)
	hex (150 147 141 138 222 219 213 210) (10 10 13) simpleGrading (1 1 1)
	hex (149 146 147 150 221 218 219 222) (10 10 13) simpleGrading (1 1 1)

	hex (94 95 97 96 166 167 169 168) (10 10 13) simpleGrading (1 1 1)
	hex (92 94 96 98 164 166 168 170) (10 10 13) simpleGrading (1 1 1)
	hex (93 95 94 92 165 167 166 164) (10 10 13) simpleGrading (1 1 1)
	hex (99 97 95 93 171 169 167 165) (10 10 13) simpleGrading (1 1 1)
	hex (98 96 97 99 170 168 169 171) (10 10 13) simpleGrading (1 1 1)
	hex (106 107 109 108 178 179 181 180) (10 10 13) simpleGrading (1 1 1)
	hex (104 106 108 110 176 178 180 182) (10 10 13) simpleGrading (1 1 1)
	hex (105 107 106 104 177 179 178 176) (10 10 13) simpleGrading (1 1 1)
	hex (111 109 107 105 183 181 179 177) (10 10 13) simpleGrading (1 1 1)
	hex (110 108 109 111 182 180 181 183) (10 10 13) simpleGrading (1 1 1)
	hex (118 119 121 120 190 191 193 192) (10 10 13) simpleGrading (1 1 1)
	hex (116 118 120 122 188 190 192 194) (10 10 13) simpleGrading (1 1 1)
	hex (117 119 118 116 189 191 190 188) (10 10 13) simpleGrading (1 1 1)
	hex (123 121 119 117 195 193 191 189) (10 10 13) simpleGrading (1 1 1)
	hex (122 120 121 123 194 192 193 195) (10 10 13) simpleGrading (1 1 1)
	hex (130 131 133 132 202 203 205 204) (10 10 13) simpleGrading (1 1 1)
	hex (128 130 132 134 200 202 204 206) (10 10 13) simpleGrading (1 1 1)
	hex (129 131 130 128 201 203 202 200) (10 10 13) simpleGrading (1 1 1)
	hex (135 133 131 129 207 205 203 201) (10 10 13) simpleGrading (1 1 1)
	hex (134 132 133 135 206 204 205 207) (10 10 13) simpleGrading (1 1 1)
	hex (142 143 145 144 214 215 217 216) (10 10 13) simpleGrading (1 1 1)
	hex (140 142 144 146 212 214 216 218) (10 10 13) simpleGrading (1 1 1)
	hex (141 143 142 140 213 215 214 212) (10 10 13) simpleGrading (1 1 1)
	hex (147 145 143 141 219 217 215 213) (10 10 13) simpleGrading (1 1 1)
	hex (146 144 145 147 218 216 217 219) (10 10 13) simpleGrading (1 1 1)

);

edges
(
	arc 40 41 (16.8 8.866666666666667 2)
	arc 41 43 (17.733333333333334 9.8 2)
	arc 43 42 (16.8 10.733333333333334 2)
	arc 42 40 (15.866666666666667 9.8 2)
	arc 48 49 (16.8 15.4 2)
	arc 49 51 (17.733333333333334 16.333333333333336 2)
	arc 51 50 (16.8 17.266666666666666 2)
	arc 50 48 (15.866666666666667 16.333333333333336 2)
	arc 56 57 (16.8 21.933333333333334 2)
	arc 57 59 (17.733333333333334 22.866666666666667 2)
	arc 59 58 (16.8 23.8 2)
	arc 58 56 (15.866666666666667 22.866666666666667 2)
	arc 64 65 (16.8 28.466666666666665 2)
	arc 65 67 (17.733333333333334 29.4 2)
	arc 67 66 (16.8 30.333333333333332 2)
	arc 66 64 (15.866666666666667 29.4 2)
	arc 72 73 (16.8 35.0 2)
	arc 73 75 (17.733333333333334 35.93333333333334 2)
	arc 75 74 (16.8 36.86666666666667 2)
	arc 74 72 (15.866666666666667 35.93333333333334 2)

	arc 92 93 (16.8 8.866666666666667 102)
	arc 93 99 (17.733333333333334 9.8 102)
	arc 99 98 (16.8 10.733333333333334 102)
	arc 98 92 (15.866666666666667 9.8 102)
	arc 104 105 (16.8 15.4 102)
	arc 105 111 (17.733333333333334 16.333333333333336 102)
	arc 111 110 (16.8 17.266666666666666 102)
	arc 110 104 (15.866666666666667 16.333333333333336 102)
	arc 116 117 (16.8 21.933333333333334 102)
	arc 117 123 (17.733333333333334 22.866666666666667 102)
	arc 123 122 (16.8 23.8 102)
	arc 122 116 (15.866666666666667 22.866666666666667 102)
	arc 128 129 (16.8 28.466666666666665 102)
	arc 129 135 (17.733333333333334 29.4 102)
	arc 135 134 (16.8 30.333333333333332 102)
	arc 134 128 (15.866666666666667 29.4 102)
	arc 140 141 (16.8 35.0 102)
	arc 141 147 (17.733333333333334 35.93333333333334 102)
	arc 147 146 (16.8 36.86666666666667 102)
	arc 146 140 (15.866666666666667 35.93333333333334 102)

	arc 164 165 (16.8 8.866666666666667 135.33333333333334)
	arc 165 171 (17.733333333333334 9.8 135.33333333333334)
	arc 171 170 (16.8 10.733333333333334 135.33333333333334)
	arc 170 164 (15.866666666666667 9.8 135.33333333333334)
	arc 176 177 (16.8 15.4 135.33333333333334)
	arc 177 183 (17.733333333333334 16.333333333333336 135.33333333333334)
	arc 183 182 (16.8 17.266666666666666 135.33333333333334)
	arc 182 176 (15.866666666666667 16.333333333333336 135.33333333333334)
	arc 188 189 (16.8 21.933333333333334 135.33333333333334)
	arc 189 195 (17.733333333333334 22.866666666666667 135.33333333333334)
	arc 195 194 (16.8 23.8 135.33333333333334)
	arc 194 188 (15.866666666666667 22.866666666666667 135.33333333333334)
	arc 200 201 (16.8 28.466666666666665 135.33333333333334)
	arc 201 207 (17.733333333333334 29.4 135.33333333333334)
	arc 207 206 (16.8 30.333333333333332 135.33333333333334)
	arc 206 200 (15.866666666666667 29.4 135.33333333333334)
	arc 212 213 (16.8 35.0 135.33333333333334)
	arc 213 219 (17.733333333333334 35.93333333333334 135.33333333333334)
	arc 219 218 (16.8 36.86666666666667 135.33333333333334)
	arc 218 212 (15.866666666666667 35.93333333333334 135.33333333333334)
);

patches
(
	patch bottom
	(
		(4 5 1 0)
		(5 6 2 1)
		(6 7 3 2)
		(8 9 5 4)
		(10 11 7 6)
		(12 13 9 8)
		(14 15 11 10)
		(16 17 13 12)
		(18 19 15 14)
		(20 21 17 16)
		(22 23 19 18)
		(24 25 21 20)
		(26 27 23 22)
		(28 29 25 24)
		(29 30 26 25)
		(30 31 27 26)
	)

	patch top
	(
		(156 157 161 160)
		(160 161 173 172)
		(172 173 185 184)
		(184 185 197 196)
		(196 197 209 208)
		(208 209 221 220)
		(220 221 225 224)
		(158 159 163 162)
		(162 163 175 174)
		(174 175 187 186)
		(186 187 199 198)
		(198 199 211 210)
		(210 211 223 222)
		(222 223 227 226)
		(157 158 162 161)
		(221 222 226 225)
		(161 164 170 173)
		(162 165 164 161)
		(174 171 165 162)
		(173 170 171 174)
		(173 176 182 185)
		(174 177 176 173)
		(186 183 177 174)
		(185 182 183 186)
		(185 188 194 197)
		(186 189 188 185)
		(198 195 189 186)
		(197 194 195 198)
		(197 200 206 209)
		(198 201 200 197)
		(210 207 201 198)
		(209 206 207 210)
		(209 212 218 221)
		(210 213 212 209)
		(222 219 213 210)
		(221 218 219 222)
		(166 167 169 168)
		(164 166 168 170)
		(165 167 166 164)
		(171 169 167 165)
		(170 168 169 171)
		(178 179 181 180)
		(176 178 180 182)
		(177 179 178 176)
		(183 181 179 177)
		(182 180 181 183)
		(190 191 193 192)
		(188 190 192 194)
		(189 191 190 188)
		(195 193 191 189)
		(194 192 193 195)
		(202 203 205 204)
		(200 202 204 206)
		(201 203 202 200)
		(207 205 203 201)
		(206 204 205 207)
		(214 215 217 216)
		(212 214 216 218)
		(213 215 214 212)
		(219 217 215 213)
		(218 216 217 219)
	)

	patch inlet
	(
		(32 36 4 0)
		(84 88 36 32)
		(156 160 88 84)
		(36 44 8 4)
		(88 100 44 36)
		(160 172 100 88)
		(44 52 12 8)
		(100 112 52 44)
		(172 184 112 100)
		(52 60 16 12)
		(112 124 60 52)
		(184 196 124 112)
		(60 68 20 16)
		(124 136 68 60)
		(196 208 136 124)
		(68 76 24 20)
		(136 148 76 68)
		(208 220 148 136)
		(76 80 28 24)
		(148 152 80 76)
		(220 224 152 148)
	)

	patch outlet
	(
		(3 7 39 35)
		(35 39 91 87)
		(87 91 163 159)
		(7 11 47 39)
		(39 47 103 91)
		(91 103 175 163)
		(11 15 55 47)
		(47 55 115 103)
		(103 115 187 175)
		(15 19 63 55)
		(55 63 127 115)
		(115 127 199 187)
		(19 23 71 63)
		(63 71 139 127)
		(127 139 211 199)
		(23 27 79 71)
		(71 79 151 139)
		(139 151 223 211)
		(27 31 83 79)
		(79 83 155 151)
		(151 155 227 223)
	)

	patch bristle
	(
		(9 45 37 5)
		(10 46 38 6)
		(13 53 45 9)
		(14 54 46 10)
		(17 61 53 13)
		(18 62 54 14)
		(21 69 61 17)
		(22 70 62 18)
		(25 77 69 21)
		(26 78 70 22)
		(5 37 38 6)
		(26 78 77 25)
		(45 42 40 37)
		(37 40 41 38)
		(38 41 43 46)
		(46 43 42 45)
		(53 50 48 45)
		(45 48 49 46)
		(46 49 51 54)
		(54 51 50 53)
		(61 58 56 53)
		(53 56 57 54)
		(54 57 59 62)
		(62 59 58 61)
		(69 66 64 61)
		(61 64 65 62)
		(62 65 67 70)
		(70 67 66 69)
		(77 74 72 69)
		(69 72 73 70)
		(70 73 75 78)
		(78 75 74 77)
		(96 97 95 94)
		(98 96 94 92)
		(92 94 95 93)
		(93 95 97 99)
		(99 97 96 98)
		(42 98 92 40)
		(40 92 93 41)
		(41 93 99 43)
		(43 99 98 42)
		(108 109 107 106)
		(110 108 106 104)
		(104 106 107 105)
		(105 107 109 111)
		(111 109 108 110)
		(50 110 104 48)
		(48 104 105 49)
		(49 105 111 51)
		(51 111 110 50)
		(120 121 119 118)
		(122 120 118 116)
		(116 118 119 117)
		(117 119 121 123)
		(123 121 120 122)
		(58 122 116 56)
		(56 116 117 57)
		(57 117 123 59)
		(59 123 122 58)
		(132 133 131 130)
		(134 132 130 128)
		(128 130 131 129)
		(129 131 133 135)
		(135 133 132 134)
		(66 134 128 64)
		(64 128 129 65)
		(65 129 135 67)
		(67 135 134 66)
		(144 145 143 142)
		(146 144 142 140)
		(140 142 143 141)
		(141 143 145 147)
		(147 145 144 146)
		(74 146 140 72)
		(72 140 141 73)
		(73 141 147 75)
		(75 147 146 74)
	)

	patch frontAndBackPlanes
	(
		(0 1 33 32)
		(32 33 85 84)
		(84 85 157 156)
		(28 80 81 29)
		(80 152 153 81)
		(152 224 225 153)
		(1 2 34 33)
		(33 34 86 85)
		(85 86 158 157)
		(29 81 82 30)
		(81 153 154 82)
		(153 225 226 154)
		(2 3 35 34)
		(34 35 87 86)
		(86 87 159 158)
		(30 82 83 31)
		(82 154 155 83)
		(154 226 227 155)
	)
);

mergePatchPairs
(
);


// ************************************************************************* //

