/*--------------------------------*- C++ -*----------------------------------*\
| =========                 |                                                 |
| \      /  F ield         | foam-extend: Open Source CFD                    |
|  \    /   O peration     | Version:     4.0                                |
|   \  /    A nd           | Web:         http://www.foam-extend.org         |
|    \/     M anipulation  |                                                 |
\*---------------------------------------------------------------------------*/
FoamFile
{
    version     2.0;
    format      ascii;
    class       dictionary;
    object      blockMeshDict;
}
// * * * * * * * * * * * * * * * * * * * * * * * * * * * * * * * * * * * * * //

convertToMeters 0.001;
vertices
(
	(0 0 0)      //0
	(600 0 0)      //1
	(1200 0 0)      //2
	(1800 0 0)      //3
	(0 550 0)      //4
	(600 550 0)      //5
	(1200 550 0)      //6
	(1800 550 0)      //7
	(0 1100 0)      //8
	(600 1100 0)      //9
	(1200 1100 0)      //10
	(1800 1100 0)      //11
	(0 1650 0)      //12
	(600 1650 0)      //13
	(1200 1650 0)      //14
	(1800 1650 0)      //15
	(0 2200 0)      //16
	(600 2200 0)      //17
	(1200 2200 0)      //18
	(1800 2200 0)      //19
	(0 2750 0)      //20
	(600 2750 0)      //21
	(1200 2750 0)      //22
	(1800 2750 0)      //23
	(0 3300 0)      //24
	(600 3300 0)      //25
	(1200 3300 0)      //26
	(1800 3300 0)      //27
	(0 3850 0)      //28
	(600 3850 0)      //29
	(1200 3850 0)      //30
	(1800 3850 0)      //31

	(0 0 150)      //32
	(600 0 150)      //33
	(1200 0 150)      //34
	(1800 0 150)      //35
	(0 550 150)      //36
	(600 550 150)      //37
	(1200 550 150)      //38
	(1800 550 150)      //39
	(0 1100 150)      //40
	(600 1100 150)      //41
	(1200 1100 150)      //42
	(1800 1100 150)      //43
	(0 1650 150)      //44
	(600 1650 150)      //45
	(1200 1650 150)      //46
	(1800 1650 150)      //47
	(0 2200 150)      //48
	(600 2200 150)      //49
	(1200 2200 150)      //50
	(1800 2200 150)      //51
	(0 2750 150)      //52
	(600 2750 150)      //53
	(1200 2750 150)      //54
	(1800 2750 150)      //55
	(0 3300 150)      //56
	(600 3300 150)      //57
	(1200 3300 150)      //58
	(1800 3300 150)      //59
	(0 3850 150)      //60
	(600 3850 150)      //61
	(1200 3850 150)      //62
	(1800 3850 150)      //63
	(723.2233 1748.2233 150)      //64
	(1076.7767 1748.2233 150)      //65
	(723.2233 2101.7767 150)      //66
	(1076.7767 2101.7767 150)      //67
	(723.2233 648.2233 150)      //68
	(1076.7767 648.2233 150)      //69
	(723.2233 1001.7767 150)      //70
	(1076.7767 1001.7767 150)      //71
	(723.2233 2848.2233 150)      //72
	(1076.7767 2848.2233 150)      //73
	(723.2233 3201.7767 150)      //74
	(1076.7767 3201.7767 150)      //75
	(723.2233 1198.2233 150)      //76
	(1076.7767 1198.2233 150)      //77
	(723.2233 1551.7767 150)      //78
	(1076.7767 1551.7767 150)      //79
	(723.2233 2298.2233 150)      //80
	(1076.7767 2298.2233 150)      //81
	(723.2233 2651.7767 150)      //82
	(1076.7767 2651.7767 150)      //83

	(0 0 1650)      //84
	(600 0 1650)      //85
	(1200 0 1650)      //86
	(1800 0 1650)      //87
	(0 550 1650)      //88
	(600 550 1650)      //89
	(1200 550 1650)      //90
	(1800 550 1650)      //91
	(0 1100 1650)      //92
	(600 1100 1650)      //93
	(1200 1100 1650)      //94
	(1800 1100 1650)      //95
	(0 1650 1650)      //96
	(600 1650 1650)      //97
	(1200 1650 1650)      //98
	(1800 1650 1650)      //99
	(0 2200 1650)      //100
	(600 2200 1650)      //101
	(1200 2200 1650)      //102
	(1800 2200 1650)      //103
	(0 2750 1650)      //104
	(600 2750 1650)      //105
	(1200 2750 1650)      //106
	(1800 2750 1650)      //107
	(0 3300 1650)      //108
	(600 3300 1650)      //109
	(1200 3300 1650)      //110
	(1800 3300 1650)      //111
	(0 3850 1650)      //112
	(600 3850 1650)      //113
	(1200 3850 1650)      //114
	(1800 3850 1650)      //115
	(723.2233 1748.2233 1650)      //116
	(1076.7767 1748.2233 1650)      //117
	(723.2233 2101.7767 1650)      //118
	(1076.7767 2101.7767 1650)      //119
	(723.2233 648.2233 1650)      //120
	(1076.7767 648.2233 1650)      //121
	(723.2233 1001.7767 1650)      //122
	(1076.7767 1001.7767 1650)      //123
	(723.2233 2848.2233 1650)      //124
	(1076.7767 2848.2233 1650)      //125
	(723.2233 3201.7767 1650)      //126
	(1076.7767 3201.7767 1650)      //127
	(723.2233 1198.2233 1650)      //128
	(1076.7767 1198.2233 1650)      //129
	(723.2233 1551.7767 1650)      //130
	(1076.7767 1551.7767 1650)      //131
	(723.2233 2298.2233 1650)      //132
	(1076.7767 2298.2233 1650)      //133
	(723.2233 2651.7767 1650)      //134
	(1076.7767 2651.7767 1650)      //135
	(811.6117 1836.6117 1650)      //136
	(988.3883 1836.6117 1650)      //137
	(988.3883 2013.3883 1650)      //138
	(811.6117 2013.3883 1650)      //139
	(811.6117 736.6117 1650)      //140
	(988.3883 736.6117 1650)      //141
	(988.3883 913.3883 1650)      //142
	(811.6117 913.3883 1650)      //143
	(811.6117 2936.6117 1650)      //144
	(988.3883 2936.6117 1650)      //145
	(988.3883 3113.3883 1650)      //146
	(811.6117 3113.3883 1650)      //147
	(811.6117 1286.6117 1650)      //148
	(988.3883 1286.6117 1650)      //149
	(988.3883 1463.3883 1650)      //150
	(811.6117 1463.3883 1650)      //151
	(811.6117 2386.6117 1650)      //152
	(988.3883 2386.6117 1650)      //153
	(988.3883 2563.3883 1650)      //154
	(811.6117 2563.3883 1650)      //155

	(0 0 2150)      //156
	(600 0 2150)      //157
	(1200 0 2150)      //158
	(1800 0 2150)      //159
	(0 550 2150)      //160
	(600 550 2150)      //161
	(1200 550 2150)      //162
	(1800 550 2150)      //163
	(0 1100 2150)      //164
	(600 1100 2150)      //165
	(1200 1100 2150)      //166
	(1800 1100 2150)      //167
	(0 1650 2150)      //168
	(600 1650 2150)      //169
	(1200 1650 2150)      //170
	(1800 1650 2150)      //171
	(0 2200 2150)      //172
	(600 2200 2150)      //173
	(1200 2200 2150)      //174
	(1800 2200 2150)      //175
	(0 2750 2150)      //176
	(600 2750 2150)      //177
	(1200 2750 2150)      //178
	(1800 2750 2150)      //179
	(0 3300 2150)      //180
	(600 3300 2150)      //181
	(1200 3300 2150)      //182
	(1800 3300 2150)      //183
	(0 3850 2150)      //184
	(600 3850 2150)      //185
	(1200 3850 2150)      //186
	(1800 3850 2150)      //187
	(723.2233 1748.2233 2150)      //188
	(1076.7767 1748.2233 2150)      //189
	(723.2233 2101.7767 2150)      //190
	(1076.7767 2101.7767 2150)      //191
	(723.2233 648.2233 2150)      //192
	(1076.7767 648.2233 2150)      //193
	(723.2233 1001.7767 2150)      //194
	(1076.7767 1001.7767 2150)      //195
	(723.2233 2848.2233 2150)      //196
	(1076.7767 2848.2233 2150)      //197
	(723.2233 3201.7767 2150)      //198
	(1076.7767 3201.7767 2150)      //199
	(723.2233 1198.2233 2150)      //200
	(1076.7767 1198.2233 2150)      //201
	(723.2233 1551.7767 2150)      //202
	(1076.7767 1551.7767 2150)      //203
	(723.2233 2298.2233 2150)      //204
	(1076.7767 2298.2233 2150)      //205
	(723.2233 2651.7767 2150)      //206
	(1076.7767 2651.7767 2150)      //207
	(811.6117 1836.6117 2150)      //208
	(988.3883 1836.6117 2150)      //209
	(988.3883 2013.3883 2150)      //210
	(811.6117 2013.3883 2150)      //211
	(811.6117 736.6117 2150)      //212
	(988.3883 736.6117 2150)      //213
	(988.3883 913.3883 2150)      //214
	(811.6117 913.3883 2150)      //215
	(811.6117 2936.6117 2150)      //216
	(988.3883 2936.6117 2150)      //217
	(988.3883 3113.3883 2150)      //218
	(811.6117 3113.3883 2150)      //219
	(811.6117 1286.6117 2150)      //220
	(988.3883 1286.6117 2150)      //221
	(988.3883 1463.3883 2150)      //222
	(811.6117 1463.3883 2150)      //223
	(811.6117 2386.6117 2150)      //224
	(988.3883 2386.6117 2150)      //225
	(988.3883 2563.3883 2150)      //226
	(811.6117 2563.3883 2150)      //227

);

blocks
(
	hex (0 1 5 4 32 33 37 36) (5 5 1) simpleGrading (1 1 1)
	hex (1 2 6 5 33 34 38 37) (5 5 1) simpleGrading (1 1 1)
	hex (2 3 7 6 34 35 39 38) (5 5 1) simpleGrading (1 1 1)
	hex (4 5 9 8 36 37 41 40) (5 5 1) simpleGrading (1 1 1)
	hex (6 7 11 10 38 39 43 42) (5 5 1) simpleGrading (1 1 1)
	hex (8 9 13 12 40 41 45 44) (5 5 1) simpleGrading (1 1 1)
	hex (10 11 15 14 42 43 47 46) (5 5 1) simpleGrading (1 1 1)
	hex (12 13 17 16 44 45 49 48) (5 5 1) simpleGrading (1 1 1)
	hex (14 15 19 18 46 47 51 50) (5 5 1) simpleGrading (1 1 1)
	hex (16 17 21 20 48 49 53 52) (5 5 1) simpleGrading (1 1 1)
	hex (18 19 23 22 50 51 55 54) (5 5 1) simpleGrading (1 1 1)
	hex (20 21 25 24 52 53 57 56) (5 5 1) simpleGrading (1 1 1)
	hex (22 23 27 26 54 55 59 58) (5 5 1) simpleGrading (1 1 1)
	hex (24 25 29 28 56 57 61 60) (5 5 1) simpleGrading (1 1 1)
	hex (25 26 30 29 57 58 62 61) (5 5 1) simpleGrading (1 1 1)
	hex (26 27 31 30 58 59 63 62) (5 5 1) simpleGrading (1 1 1)

	hex (32 33 37 36 84 85 89 88) (5 5 10) simpleGrading (1 1 1)
	hex (33 34 38 37 85 86 90 89) (5 5 10) simpleGrading (1 1 1)
	hex (34 35 39 38 86 87 91 90) (5 5 10) simpleGrading (1 1 1)
	hex (36 37 41 40 88 89 93 92) (5 5 10) simpleGrading (1 1 1)
	hex (38 39 43 42 90 91 95 94) (5 5 10) simpleGrading (1 1 1)
	hex (40 41 45 44 92 93 97 96) (5 5 10) simpleGrading (1 1 1)
	hex (42 43 47 46 94 95 99 98) (5 5 10) simpleGrading (1 1 1)
	hex (44 45 49 48 96 97 101 100) (5 5 10) simpleGrading (1 1 1)
	hex (46 47 51 50 98 99 103 102) (5 5 10) simpleGrading (1 1 1)
	hex (48 49 53 52 100 101 105 104) (5 5 10) simpleGrading (1 1 1)
	hex (50 51 55 54 102 103 107 106) (5 5 10) simpleGrading (1 1 1)
	hex (52 53 57 56 104 105 109 108) (5 5 10) simpleGrading (1 1 1)
	hex (54 55 59 58 106 107 111 110) (5 5 10) simpleGrading (1 1 1)
	hex (56 57 61 60 108 109 113 112) (5 5 10) simpleGrading (1 1 1)
	hex (57 58 62 61 109 110 114 113) (5 5 10) simpleGrading (1 1 1)
	hex (58 59 63 62 110 111 115 114) (5 5 10) simpleGrading (1 1 1)

	hex (84 85 89 88 156 157 161 160) (5 5 3) simpleGrading (1 1 1)
	hex (85 86 90 89 157 158 162 161) (5 5 3) simpleGrading (1 1 1)
	hex (86 87 91 90 158 159 163 162) (5 5 3) simpleGrading (1 1 1)
	hex (88 89 93 92 160 161 165 164) (5 5 3) simpleGrading (1 1 1)
	hex (90 91 95 94 162 163 167 166) (5 5 3) simpleGrading (1 1 1)
	hex (92 93 97 96 164 165 169 168) (5 5 3) simpleGrading (1 1 1)
	hex (94 95 99 98 166 167 171 170) (5 5 3) simpleGrading (1 1 1)
	hex (96 97 101 100 168 169 173 172) (5 5 3) simpleGrading (1 1 1)
	hex (98 99 103 102 170 171 175 174) (5 5 3) simpleGrading (1 1 1)
	hex (100 101 105 104 172 173 177 176) (5 5 3) simpleGrading (1 1 1)
	hex (102 103 107 106 174 175 179 178) (5 5 3) simpleGrading (1 1 1)
	hex (104 105 109 108 176 177 181 180) (5 5 3) simpleGrading (1 1 1)
	hex (106 107 111 110 178 179 183 182) (5 5 3) simpleGrading (1 1 1)
	hex (108 109 113 112 180 181 185 184) (5 5 3) simpleGrading (1 1 1)
	hex (109 110 114 113 181 182 186 185) (5 5 3) simpleGrading (1 1 1)
	hex (110 111 115 114 182 183 187 186) (5 5 3) simpleGrading (1 1 1)

	hex (37 68 70 41 89 120 122 93) (5 5 10) simpleGrading (1 1 1)
	hex (38 69 68 37 90 121 120 89) (5 5 10) simpleGrading (1 1 1)
	hex (42 71 69 38 94 123 121 90) (5 5 10) simpleGrading (1 1 1)
	hex (41 70 71 42 93 122 123 94) (5 5 10) simpleGrading (1 1 1)
	hex (41 76 78 45 93 128 130 97) (5 5 10) simpleGrading (1 1 1)
	hex (42 77 76 41 94 129 128 93) (5 5 10) simpleGrading (1 1 1)
	hex (46 79 77 42 98 131 129 94) (5 5 10) simpleGrading (1 1 1)
	hex (45 78 79 46 97 130 131 98) (5 5 10) simpleGrading (1 1 1)
	hex (45 64 66 49 97 116 118 101) (5 5 10) simpleGrading (1 1 1)
	hex (46 65 64 45 98 117 116 97) (5 5 10) simpleGrading (1 1 1)
	hex (50 67 65 46 102 119 117 98) (5 5 10) simpleGrading (1 1 1)
	hex (49 66 67 50 101 118 119 102) (5 5 10) simpleGrading (1 1 1)
	hex (49 80 82 53 101 132 134 105) (5 5 10) simpleGrading (1 1 1)
	hex (50 81 80 49 102 133 132 101) (5 5 10) simpleGrading (1 1 1)
	hex (54 83 81 50 106 135 133 102) (5 5 10) simpleGrading (1 1 1)
	hex (53 82 83 54 105 134 135 106) (5 5 10) simpleGrading (1 1 1)
	hex (53 72 74 57 105 124 126 109) (5 5 10) simpleGrading (1 1 1)
	hex (54 73 72 53 106 125 124 105) (5 5 10) simpleGrading (1 1 1)
	hex (58 75 73 54 110 127 125 106) (5 5 10) simpleGrading (1 1 1)
	hex (57 74 75 58 109 126 127 110) (5 5 10) simpleGrading (1 1 1)

	hex (89 120 122 93 161 192 194 165) (5 5 3) simpleGrading (1 1 1)
	hex (90 121 120 89 162 193 192 161) (5 5 3) simpleGrading (1 1 1)
	hex (94 123 121 90 166 195 193 162) (5 5 3) simpleGrading (1 1 1)
	hex (93 122 123 94 165 194 195 166) (5 5 3) simpleGrading (1 1 1)
	hex (93 128 130 97 165 200 202 169) (5 5 3) simpleGrading (1 1 1)
	hex (94 129 128 93 166 201 200 165) (5 5 3) simpleGrading (1 1 1)
	hex (98 131 129 94 170 203 201 166) (5 5 3) simpleGrading (1 1 1)
	hex (97 130 131 98 169 202 203 170) (5 5 3) simpleGrading (1 1 1)
	hex (97 116 118 101 169 188 190 173) (5 5 3) simpleGrading (1 1 1)
	hex (98 117 116 97 170 189 188 169) (5 5 3) simpleGrading (1 1 1)
	hex (102 119 117 98 174 191 189 170) (5 5 3) simpleGrading (1 1 1)
	hex (101 118 119 102 173 190 191 174) (5 5 3) simpleGrading (1 1 1)
	hex (101 132 134 105 173 204 206 177) (5 5 3) simpleGrading (1 1 1)
	hex (102 133 132 101 174 205 204 173) (5 5 3) simpleGrading (1 1 1)
	hex (106 135 133 102 178 207 205 174) (5 5 3) simpleGrading (1 1 1)
	hex (105 134 135 106 177 206 207 178) (5 5 3) simpleGrading (1 1 1)
	hex (105 124 126 109 177 196 198 181) (5 5 3) simpleGrading (1 1 1)
	hex (106 125 124 105 178 197 196 177) (5 5 3) simpleGrading (1 1 1)
	hex (110 127 125 106 182 199 197 178) (5 5 3) simpleGrading (1 1 1)
	hex (109 126 127 110 181 198 199 182) (5 5 3) simpleGrading (1 1 1)

	hex (140 141 142 143 212 213 214 215) (5 5 3) simpleGrading (1 1 1)
	hex (120 140 143 122 192 212 215 194) (5 5 3) simpleGrading (1 1 1)
	hex (121 141 140 120 193 213 212 192) (5 5 3) simpleGrading (1 1 1)
	hex (123 142 141 121 195 214 213 193) (5 5 3) simpleGrading (1 1 1)
	hex (122 143 142 123 194 215 214 195) (5 5 3) simpleGrading (1 1 1)
	hex (148 149 150 151 220 221 222 223) (5 5 3) simpleGrading (1 1 1)
	hex (128 148 151 130 200 220 223 202) (5 5 3) simpleGrading (1 1 1)
	hex (129 149 148 128 201 221 220 200) (5 5 3) simpleGrading (1 1 1)
	hex (131 150 149 129 203 222 221 201) (5 5 3) simpleGrading (1 1 1)
	hex (130 151 150 131 202 223 222 203) (5 5 3) simpleGrading (1 1 1)
	hex (136 137 138 139 208 209 210 211) (5 5 3) simpleGrading (1 1 1)
	hex (116 136 139 118 188 208 211 190) (5 5 3) simpleGrading (1 1 1)
	hex (117 137 136 116 189 209 208 188) (5 5 3) simpleGrading (1 1 1)
	hex (119 138 137 117 191 210 209 189) (5 5 3) simpleGrading (1 1 1)
	hex (118 139 138 119 190 211 210 191) (5 5 3) simpleGrading (1 1 1)
	hex (152 153 154 155 224 225 226 227) (5 5 3) simpleGrading (1 1 1)
	hex (132 152 155 134 204 224 227 206) (5 5 3) simpleGrading (1 1 1)
	hex (133 153 152 132 205 225 224 204) (5 5 3) simpleGrading (1 1 1)
	hex (135 154 153 133 207 226 225 205) (5 5 3) simpleGrading (1 1 1)
	hex (134 155 154 135 206 227 226 207) (5 5 3) simpleGrading (1 1 1)
	hex (144 145 146 147 216 217 218 219) (5 5 3) simpleGrading (1 1 1)
	hex (124 144 147 126 196 216 219 198) (5 5 3) simpleGrading (1 1 1)
	hex (125 145 144 124 197 217 216 196) (5 5 3) simpleGrading (1 1 1)
	hex (127 146 145 125 199 218 217 197) (5 5 3) simpleGrading (1 1 1)
	hex (126 147 146 127 198 219 218 199) (5 5 3) simpleGrading (1 1 1)

);

edges
(
	arc 68 69 (900.0 1675.0 150)
	arc 69 71 (1150.0 1925.0 150)
	arc 71 70 (900.0 2175.0 150)
	arc 70 68 (650.0 1925.0 150)
	arc 76 77 (900.0 1675.0 150)
	arc 77 79 (1150.0 1925.0 150)
	arc 79 78 (900.0 2175.0 150)
	arc 78 76 (650.0 1925.0 150)
	arc 64 65 (900.0 1675.0 150)
	arc 65 67 (1150.0 1925.0 150)
	arc 67 66 (900.0 2175.0 150)
	arc 66 64 (650.0 1925.0 150)
	arc 80 81 (900.0 1675.0 150)
	arc 81 83 (1150.0 1925.0 150)
	arc 83 82 (900.0 2175.0 150)
	arc 82 80 (650.0 1925.0 150)
	arc 72 73 (900.0 1675.0 150)
	arc 73 75 (1150.0 1925.0 150)
	arc 75 74 (900.0 2175.0 150)
	arc 74 72 (650.0 1925.0 150)

	arc 120 121 (900.0 1675.0 1650)
	arc 121 123 (1150.0 1925.0 1650)
	arc 123 122 (900.0 2175.0 1650)
	arc 122 120 (650.0 1925.0 1650)
	arc 128 129 (900.0 1675.0 1650)
	arc 129 131 (1150.0 1925.0 1650)
	arc 131 130 (900.0 2175.0 1650)
	arc 130 128 (650.0 1925.0 1650)
	arc 116 117 (900.0 1675.0 1650)
	arc 117 119 (1150.0 1925.0 1650)
	arc 119 118 (900.0 2175.0 1650)
	arc 118 116 (650.0 1925.0 1650)
	arc 132 133 (900.0 1675.0 1650)
	arc 133 135 (1150.0 1925.0 1650)
	arc 135 134 (900.0 2175.0 1650)
	arc 134 132 (650.0 1925.0 1650)
	arc 124 125 (900.0 1675.0 1650)
	arc 125 127 (1150.0 1925.0 1650)
	arc 127 126 (900.0 2175.0 1650)
	arc 126 124 (650.0 1925.0 1650)

	arc 192 193 (900.0 1675.0 2150.0)
	arc 193 195 (1150.0 1925.0 2150.0)
	arc 195 194 (900.0 2175.0 2150.0)
	arc 194 192 (650.0 1925.0 2150.0)
	arc 200 201 (900.0 1675.0 2150.0)
	arc 201 203 (1150.0 1925.0 2150.0)
	arc 203 202 (900.0 2175.0 2150.0)
	arc 202 200 (650.0 1925.0 2150.0)
	arc 188 189 (900.0 1675.0 2150.0)
	arc 189 191 (1150.0 1925.0 2150.0)
	arc 191 190 (900.0 2175.0 2150.0)
	arc 190 188 (650.0 1925.0 2150.0)
	arc 204 205 (900.0 1675.0 2150.0)
	arc 205 207 (1150.0 1925.0 2150.0)
	arc 207 206 (900.0 2175.0 2150.0)
	arc 206 204 (650.0 1925.0 2150.0)
	arc 196 197 (900.0 1675.0 2150.0)
	arc 197 199 (1150.0 1925.0 2150.0)
	arc 199 198 (900.0 2175.0 2150.0)
	arc 198 196 (650.0 1925.0 2150.0)
);

patches
(
	patch bottom
	(
		(4 5 1 0)
		(5 6 2 1)
		(6 7 3 2)
		(8 9 5 4)
		(10 11 7 6)
		(12 13 9 8)
		(14 15 11 10)
		(16 17 13 12)
		(18 19 15 14)
		(20 21 17 16)
		(22 23 19 18)
		(24 25 21 20)
		(26 27 23 22)
		(28 29 25 24)
		(30 31 27 26)
	)

	patch top
	(
		(156 157 161 160)
		(157 158 162 161)
		(158 159 163 162)
		(160 161 165 164)
		(162 163 167 166)
		(164 165 169 168)
		(166 167 171 170)
		(168 169 173 172)
		(170 171 175 174)
		(172 173 177 176)
		(174 175 179 178)
		(176 177 181 180)
		(178 179 183 182)
		(180 181 185 184)
		(182 183 187 186)
		(161 192 194 165)
		(162 193 192 161)
		(166 195 193 162)
		(165 194 195 166)
		(165 200 202 169)
		(166 201 200 165)
		(170 203 201 166)
		(169 202 203 170)
		(169 188 190 173)
		(170 189 188 169)
		(174 191 189 170)
		(173 190 191 174)
		(173 204 206 177)
		(174 205 204 173)
		(178 207 205 174)
		(177 206 207 178)
		(177 196 198 181)
		(178 197 196 177)
		(182 199 197 178)
		(181 198 199 182)
		(212 213 214 215)
		(192 212 215 194)
		(193 213 212 192)
		(195 214 213 193)
		(194 215 214 195)
		(220 221 222 223)
		(200 220 223 202)
		(201 221 220 200)
		(203 222 221 201)
		(202 223 222 203)
		(208 209 210 211)
		(188 208 211 190)
		(189 209 208 188)
		(191 210 209 189)
		(190 211 210 191)
		(224 225 226 227)
		(204 224 227 206)
		(205 225 224 204)
		(207 226 225 205)
		(206 227 226 207)
		(216 217 218 219)
		(196 216 219 198)
		(197 217 216 196)
		(199 218 217 197)
		(198 219 218 199)
	)

	patch inlet
	(
		(32 36 4 0)
		(36 40 8 4)
		(40 44 12 8)
		(44 48 16 12)
		(48 52 20 16)
		(52 56 24 20)
		(56 60 28 24)
		(84 88 36 32)
		(88 92 40 36)
		(92 96 44 40)
		(96 100 48 44)
		(100 104 52 48)
		(104 108 56 52)
		(108 112 60 56)
		(168 172 100 96)
		(172 176 104 100)
		(176 180 108 104)
		(180 184 112 108)
		(156 160 88 84)
		(160 164 92 88)
		(164 168 96 92)
	)

	patch outlet
	(
		(3 7 39 35)
		(7 11 43 39)
		(11 15 47 43)
		(15 19 51 47)
		(19 23 55 51)
		(23 27 59 55)
		(27 31 63 59)
		(35 39 91 87)
		(39 43 95 91)
		(43 47 99 95)
		(47 51 103 99)
		(51 55 107 103)
		(55 59 111 107)
		(59 63 115 111)
		(99 103 175 171)
		(103 107 179 175)
		(107 111 183 179)
		(111 115 187 183)
		(87 91 163 159)
		(91 95 167 163)
		(95 99 171 167)
	)

	patch bristle
	(
		(9 41 37 5)
		(6 38 42 10)
		(13 45 41 9)
		(10 42 46 14)
		(17 49 45 13)
		(14 46 50 18)
		(21 53 49 17)
		(18 50 54 22)
		(25 57 53 21)
		(22 54 58 26)
		(41 70 68 37)
		(37 68 69 38)
		(38 69 71 42)
		(42 71 70 41)
		(45 78 76 41)
		(41 76 77 42)
		(42 77 79 46)
		(46 79 78 45)
		(49 66 64 45)
		(45 64 65 46)
		(46 65 67 50)
		(50 67 66 49)
		(53 82 80 49)
		(49 80 81 50)
		(50 81 83 54)
		(54 83 82 53)
		(57 74 72 53)
		(53 72 73 54)
		(54 73 75 58)
		(58 75 74 57)
		(143 142 141 140)
		(122 143 140 120)
		(120 140 141 121)
		(121 141 142 123)
		(123 142 143 122)
		(70 122 120 68)
		(68 120 121 69)
		(69 121 123 71)
		(71 123 122 70)
		(151 150 149 148)
		(130 151 148 128)
		(128 148 149 129)
		(129 149 150 131)
		(131 150 151 130)
		(78 130 128 76)
		(76 128 129 77)
		(77 129 131 79)
		(79 131 130 78)
		(139 138 137 136)
		(118 139 136 116)
		(116 136 137 117)
		(117 137 138 119)
		(119 138 139 118)
		(66 118 116 64)
		(64 116 117 65)
		(65 117 119 67)
		(67 119 118 66)
		(155 154 153 152)
		(134 155 152 132)
		(132 152 153 133)
		(133 153 154 135)
		(135 154 155 134)
		(82 134 132 80)
		(80 132 133 81)
		(81 133 135 83)
		(83 135 134 82)
		(147 146 145 144)
		(126 147 144 124)
		(124 144 145 125)
		(125 145 146 127)
		(127 146 147 126)
		(74 126 124 72)
		(72 124 125 73)
		(73 125 127 75)
		(75 127 126 74)
	)

	patch frontAndBackPlanes
	(
		(0 1 33 32)
		(1 2 34 33)
		(2 3 35 34)
		(32 33 85 84)
		(33 34 86 85)
		(34 35 87 86)
		(84 85 157 156)
		(85 86 158 157)
		(86 87 159 158)
		(28 60 61 29)
		(29 61 62 30)
		(30 62 63 31)
		(60 112 113 61)
		(61 113 114 62)
		(62 114 115 63)
		(112 184 185 113)
		(113 185 186 114)
		(114 186 187 115)
	)
);

mergePatchPairs
(
);


// ************************************************************************* //

