/*--------------------------------*- C++ -*----------------------------------*\
| =========                 |                                                 |
| \      /  F ield         | foam-extend: Open Source CFD                    |
|  \    /   O peration     | Version:     4.0                                |
|   \  /    A nd           | Web:         http://www.foam-extend.org         |
|    \/     M anipulation  |                                                 |
\*---------------------------------------------------------------------------*/
FoamFile
{
    version     2.0;
    format      ascii;
    class       dictionary;
    object      blockMeshDict;
}
// * * * * * * * * * * * * * * * * * * * * * * * * * * * * * * * * * * * * * //

convertToMeters 0.001;
vertices
(
	(0 0 0)      //0
	(600 0 0)      //1
	(1200 0 0)      //2
	(1800 0 0)      //3
	(0 550 0)      //4
	(600 550 0)      //5
	(1200 550 0)      //6
	(1800 550 0)      //7
	(0 1100 0)      //8
	(600 1100 0)      //9
	(1200 1100 0)      //10
	(1800 1100 0)      //11
	(0 1650 0)      //12
	(600 1650 0)      //13
	(1200 1650 0)      //14
	(1800 1650 0)      //15
	(0 2200 0)      //16
	(600 2200 0)      //17
	(1200 2200 0)      //18
	(1800 2200 0)      //19
	(0 2750 0)      //20
	(600 2750 0)      //21
	(1200 2750 0)      //22
	(1800 2750 0)      //23
	(0 3300 0)      //24
	(600 3300 0)      //25
	(1200 3300 0)      //26
	(1800 3300 0)      //27
	(0 3850 0)      //28
	(600 3850 0)      //29
	(1200 3850 0)      //30
	(1800 3850 0)      //31
	(0 0 150)      //32
	(600 0 150)      //33
	(1200 0 150)      //34
	(1800 0 150)      //35
	(0 550 150)      //36
	(600 550 150)      //37
	(1200 550 150)      //38
	(1800 550 150)      //39
	(723.2233 648.2233 150)      //40
	(1076.7767 648.2233 150)      //41
	(723.2233 1001.7767 150)      //42
	(1076.7767 1001.7767 150)      //43
	(0 1100 150)      //44
	(600 1100 150)      //45
	(1200 1100 150)      //46
	(1800 1100 150)      //47
	(723.2233 1198.2233 150)      //48
	(1076.7767 1198.2233 150)      //49
	(723.2233 1551.7767 150)      //50
	(1076.7767 1551.7767 150)      //51
	(0 1650 150)      //52
	(600 1650 150)      //53
	(1200 1650 150)      //54
	(1800 1650 150)      //55
	(723.2233 1748.2233 150)      //56
	(1076.7767 1748.2233 150)      //57
	(723.2233 2101.7767 150)      //58
	(1076.7767 2101.7767 150)      //59
	(0 2200 150)      //60
	(600 2200 150)      //61
	(1200 2200 150)      //62
	(1800 2200 150)      //63
	(723.2233 2298.2233 150)      //64
	(1076.7767 2298.2233 150)      //65
	(723.2233 2651.7767 150)      //66
	(1076.7767 2651.7767 150)      //67
	(0 2750 150)      //68
	(600 2750 150)      //69
	(1200 2750 150)      //70
	(1800 2750 150)      //71
	(723.2233 2848.2233 150)      //72
	(1076.7767 2848.2233 150)      //73
	(723.2233 3201.7767 150)      //74
	(1076.7767 3201.7767 150)      //75
	(0 3300 150)      //76
	(600 3300 150)      //77
	(1200 3300 150)      //78
	(1800 3300 150)      //79
	(0 3850 150)      //80
	(600 3850 150)      //81
	(1200 3850 150)      //82
	(1800 3850 150)      //83
	(0 0 1650)      //84
	(600 0 1650)      //85
	(1200 0 1650)      //86
	(1800 0 1650)      //87
	(0 550 1650)      //88
	(600 550 1650)      //89
	(1200 550 1650)      //90
	(1800 550 1650)      //91
	(723.2233 648.2233 1650)      //92
	(1076.7767 648.2233 1650)      //93
	(811.6117 736.6117 1650)      //94
	(988.3883 736.6117 1650)      //95
	(811.6117 913.3883 1650)      //96
	(988.3883 913.3883 1650)      //97
	(723.2233 1001.7767 1650)      //98
	(1076.7767 1001.7767 1650)      //99
	(0 1100 1650)      //100
	(600 1100 1650)      //101
	(1200 1100 1650)      //102
	(1800 1100 1650)      //103
	(723.2233 1198.2233 1650)      //104
	(1076.7767 1198.2233 1650)      //105
	(811.6117 1286.6117 1650)      //106
	(988.3883 1286.6117 1650)      //107
	(811.6117 1463.3883 1650)      //108
	(988.3883 1463.3883 1650)      //109
	(723.2233 1551.7767 1650)      //110
	(1076.7767 1551.7767 1650)      //111
	(0 1650 1650)      //112
	(600 1650 1650)      //113
	(1200 1650 1650)      //114
	(1800 1650 1650)      //115
	(723.2233 1748.2233 1650)      //116
	(1076.7767 1748.2233 1650)      //117
	(811.6117 1836.6117 1650)      //118
	(988.3883 1836.6117 1650)      //119
	(811.6117 2013.3883 1650)      //120
	(988.3883 2013.3883 1650)      //121
	(723.2233 2101.7767 1650)      //122
	(1076.7767 2101.7767 1650)      //123
	(0 2200 1650)      //124
	(600 2200 1650)      //125
	(1200 2200 1650)      //126
	(1800 2200 1650)      //127
	(723.2233 2298.2233 1650)      //128
	(1076.7767 2298.2233 1650)      //129
	(811.6117 2386.6117 1650)      //130
	(988.3883 2386.6117 1650)      //131
	(811.6117 2563.3883 1650)      //132
	(988.3883 2563.3883 1650)      //133
	(723.2233 2651.7767 1650)      //134
	(1076.7767 2651.7767 1650)      //135
	(0 2750 1650)      //136
	(600 2750 1650)      //137
	(1200 2750 1650)      //138
	(1800 2750 1650)      //139
	(723.2233 2848.2233 1650)      //140
	(1076.7767 2848.2233 1650)      //141
	(811.6117 2936.6117 1650)      //142
	(988.3883 2936.6117 1650)      //143
	(811.6117 3113.3883 1650)      //144
	(988.3883 3113.3883 1650)      //145
	(723.2233 3201.7767 1650)      //146
	(1076.7767 3201.7767 1650)      //147
	(0 3300 1650)      //148
	(600 3300 1650)      //149
	(1200 3300 1650)      //150
	(1800 3300 1650)      //151
	(0 3850 1650)      //152
	(600 3850 1650)      //153
	(1200 3850 1650)      //154
	(1800 3850 1650)      //155
	(0 0 2150)      //156
	(600 0 2150)      //157
	(1200 0 2150)      //158
	(1800 0 2150)      //159
	(0 550 2150)      //160
	(600 550 2150)      //161
	(1200 550 2150)      //162
	(1800 550 2150)      //163
	(723.2233 648.2233 2150)      //164
	(1076.7767 648.2233 2150)      //165
	(811.6117 736.6117 2150)      //166
	(988.3883 736.6117 2150)      //167
	(811.6117 913.3883 2150)      //168
	(988.3883 913.3883 2150)      //169
	(723.2233 1001.7767 2150)      //170
	(1076.7767 1001.7767 2150)      //171
	(0 1100 2150)      //172
	(600 1100 2150)      //173
	(1200 1100 2150)      //174
	(1800 1100 2150)      //175
	(723.2233 1198.2233 2150)      //176
	(1076.7767 1198.2233 2150)      //177
	(811.6117 1286.6117 2150)      //178
	(988.3883 1286.6117 2150)      //179
	(811.6117 1463.3883 2150)      //180
	(988.3883 1463.3883 2150)      //181
	(723.2233 1551.7767 2150)      //182
	(1076.7767 1551.7767 2150)      //183
	(0 1650 2150)      //184
	(600 1650 2150)      //185
	(1200 1650 2150)      //186
	(1800 1650 2150)      //187
	(723.2233 1748.2233 2150)      //188
	(1076.7767 1748.2233 2150)      //189
	(811.6117 1836.6117 2150)      //190
	(988.3883 1836.6117 2150)      //191
	(811.6117 2013.3883 2150)      //192
	(988.3883 2013.3883 2150)      //193
	(723.2233 2101.7767 2150)      //194
	(1076.7767 2101.7767 2150)      //195
	(0 2200 2150)      //196
	(600 2200 2150)      //197
	(1200 2200 2150)      //198
	(1800 2200 2150)      //199
	(723.2233 2298.2233 2150)      //200
	(1076.7767 2298.2233 2150)      //201
	(811.6117 2386.6117 2150)      //202
	(988.3883 2386.6117 2150)      //203
	(811.6117 2563.3883 2150)      //204
	(988.3883 2563.3883 2150)      //205
	(723.2233 2651.7767 2150)      //206
	(1076.7767 2651.7767 2150)      //207
	(0 2750 2150)      //208
	(600 2750 2150)      //209
	(1200 2750 2150)      //210
	(1800 2750 2150)      //211
	(723.2233 2848.2233 2150)      //212
	(1076.7767 2848.2233 2150)      //213
	(811.6117 2936.6117 2150)      //214
	(988.3883 2936.6117 2150)      //215
	(811.6117 3113.3883 2150)      //216
	(988.3883 3113.3883 2150)      //217
	(723.2233 3201.7767 2150)      //218
	(1076.7767 3201.7767 2150)      //219
	(0 3300 2150)      //220
	(600 3300 2150)      //221
	(1200 3300 2150)      //222
	(1800 3300 2150)      //223
	(0 3850 2150)      //224
	(600 3850 2150)      //225
	(1200 3850 2150)      //226
	(1800 3850 2150)      //227

);

blocks
(
	hex (0 1 5 4 32 33 37 36) (5 5 1) simpleGrading (1 1 1)
	hex (1 2 6 5 33 34 38 37) (5 5 1) simpleGrading (1 1 1)
	hex (2 3 7 6 34 35 39 38) (5 5 1) simpleGrading (1 1 1)
	hex (4 5 9 8 36 37 41 40) (5 5 1) simpleGrading (1 1 1)
	hex (6 7 11 10 38 39 43 42) (5 5 1) simpleGrading (1 1 1)
	hex (8 9 13 12 40 41 45 44) (5 5 1) simpleGrading (1 1 1)
	hex (10 11 15 14 42 43 47 46) (5 5 1) simpleGrading (1 1 1)
	hex (12 13 17 16 44 45 49 48) (5 5 1) simpleGrading (1 1 1)
	hex (14 15 19 18 46 47 51 50) (5 5 1) simpleGrading (1 1 1)
	hex (16 17 21 20 48 49 53 52) (5 5 1) simpleGrading (1 1 1)
	hex (18 19 23 22 50 51 55 54) (5 5 1) simpleGrading (1 1 1)
	hex (20 21 25 24 52 53 57 56) (5 5 1) simpleGrading (1 1 1)
	hex (22 23 27 26 54 55 59 58) (5 5 1) simpleGrading (1 1 1)
	hex (24 25 29 28 56 57 61 60) (5 5 1) simpleGrading (1 1 1)
	hex (25 26 30 29 57 58 62 61) (5 5 1) simpleGrading (1 1 1)
	hex (26 27 31 30 58 59 63 62) (5 5 1) simpleGrading (1 1 1)

	hex (32 33 37 36 84 85 89 88) (5 5 10) simpleGrading (1 1 1)
	hex (33 34 38 37 85 86 90 89) (5 5 10) simpleGrading (1 1 1)
	hex (34 35 39 38 86 87 91 90) (5 5 10) simpleGrading (1 1 1)
	hex (36 37 41 40 88 89 93 92) (5 5 10) simpleGrading (1 1 1)
	hex (38 39 43 42 90 91 95 94) (5 5 10) simpleGrading (1 1 1)
	hex (40 41 45 44 92 93 97 96) (5 5 10) simpleGrading (1 1 1)
	hex (42 43 47 46 94 95 99 98) (5 5 10) simpleGrading (1 1 1)
	hex (44 45 49 48 96 97 101 100) (5 5 10) simpleGrading (1 1 1)
	hex (46 47 51 50 98 99 103 102) (5 5 10) simpleGrading (1 1 1)
	hex (48 49 53 52 100 101 105 104) (5 5 10) simpleGrading (1 1 1)
	hex (50 51 55 54 102 103 107 106) (5 5 10) simpleGrading (1 1 1)
	hex (52 53 57 56 104 105 109 108) (5 5 10) simpleGrading (1 1 1)
	hex (54 55 59 58 106 107 111 110) (5 5 10) simpleGrading (1 1 1)
	hex (56 57 61 60 108 109 113 112) (5 5 10) simpleGrading (1 1 1)
	hex (57 58 62 61 109 110 114 113) (5 5 10) simpleGrading (1 1 1)
	hex (58 59 63 62 110 111 115 114) (5 5 10) simpleGrading (1 1 1)

	hex (37 40 42 45 89 92 94 97) (5 5 10) simpleGrading (1 1 1)
	hex (38 41 40 37 90 93 92 89) (5 5 10) simpleGrading (1 1 1)
	hex (46 43 41 38 98 95 93 90) (5 5 10) simpleGrading (1 1 1)
	hex (45 42 43 46 97 94 95 98) (5 5 10) simpleGrading (1 1 1)
	hex (45 48 50 53 97 100 102 105) (5 5 10) simpleGrading (1 1 1)
	hex (46 49 48 45 98 101 100 97) (5 5 10) simpleGrading (1 1 1)
	hex (54 51 49 46 106 103 101 98) (5 5 10) simpleGrading (1 1 1)
	hex (53 50 51 54 105 102 103 106) (5 5 10) simpleGrading (1 1 1)
	hex (53 56 58 61 105 108 110 113) (5 5 10) simpleGrading (1 1 1)
	hex (54 57 56 53 106 109 108 105) (5 5 10) simpleGrading (1 1 1)
	hex (62 59 57 54 114 111 109 106) (5 5 10) simpleGrading (1 1 1)
	hex (61 58 59 62 113 110 111 114) (5 5 10) simpleGrading (1 1 1)
	hex (61 64 66 69 113 116 118 121) (5 5 10) simpleGrading (1 1 1)
	hex (62 65 64 61 114 117 116 113) (5 5 10) simpleGrading (1 1 1)
	hex (70 67 65 62 122 119 117 114) (5 5 10) simpleGrading (1 1 1)
	hex (69 66 67 70 121 118 119 122) (5 5 10) simpleGrading (1 1 1)
	hex (69 72 74 77 121 124 126 129) (5 5 10) simpleGrading (1 1 1)
	hex (70 73 72 69 122 125 124 121) (5 5 10) simpleGrading (1 1 1)
	hex (78 75 73 70 130 127 125 122) (5 5 10) simpleGrading (1 1 1)
	hex (77 74 75 78 129 126 127 130) (5 5 10) simpleGrading (1 1 1)

	hex (84 85 89 88 156 157 161 160) (5 5 3) simpleGrading (1 1 1)
	hex (85 86 90 89 157 158 162 161) (5 5 3) simpleGrading (1 1 1)
	hex (86 87 91 90 158 159 163 162) (5 5 3) simpleGrading (1 1 1)
	hex (88 89 93 92 160 161 165 164) (5 5 3) simpleGrading (1 1 1)
	hex (90 91 95 94 162 163 167 166) (5 5 3) simpleGrading (1 1 1)
	hex (92 93 97 96 164 165 169 168) (5 5 3) simpleGrading (1 1 1)
	hex (94 95 99 98 166 167 171 170) (5 5 3) simpleGrading (1 1 1)
	hex (96 97 101 100 168 169 173 172) (5 5 3) simpleGrading (1 1 1)
	hex (98 99 103 102 170 171 175 174) (5 5 3) simpleGrading (1 1 1)
	hex (100 101 105 104 172 173 177 176) (5 5 3) simpleGrading (1 1 1)
	hex (102 103 107 106 174 175 179 178) (5 5 3) simpleGrading (1 1 1)
	hex (104 105 109 108 176 177 181 180) (5 5 3) simpleGrading (1 1 1)
	hex (106 107 111 110 178 179 183 182) (5 5 3) simpleGrading (1 1 1)
	hex (108 109 113 112 180 181 185 184) (5 5 3) simpleGrading (1 1 1)
	hex (109 110 114 113 181 182 186 185) (5 5 3) simpleGrading (1 1 1)
	hex (110 111 115 114 182 183 187 186) (5 5 3) simpleGrading (1 1 1)

	hex (89 92 94 101 161 164 166 173) (5 5 3) simpleGrading (1 1 1)
	hex (90 93 92 89 162 165 164 161) (5 5 3) simpleGrading (1 1 1)
	hex (102 95 93 90 174 167 165 162) (5 5 3) simpleGrading (1 1 1)
	hex (101 94 95 102 173 166 167 174) (5 5 3) simpleGrading (1 1 1)
	hex (101 104 106 113 173 176 178 185) (5 5 3) simpleGrading (1 1 1)
	hex (102 105 104 101 174 177 176 173) (5 5 3) simpleGrading (1 1 1)
	hex (114 107 105 102 186 179 177 174) (5 5 3) simpleGrading (1 1 1)
	hex (113 106 107 114 185 178 179 186) (5 5 3) simpleGrading (1 1 1)
	hex (113 116 118 125 185 188 190 197) (5 5 3) simpleGrading (1 1 1)
	hex (114 117 116 113 186 189 188 185) (5 5 3) simpleGrading (1 1 1)
	hex (126 119 117 114 198 191 189 186) (5 5 3) simpleGrading (1 1 1)
	hex (125 118 119 126 197 190 191 198) (5 5 3) simpleGrading (1 1 1)
	hex (125 128 130 137 197 200 202 209) (5 5 3) simpleGrading (1 1 1)
	hex (126 129 128 125 198 201 200 197) (5 5 3) simpleGrading (1 1 1)
	hex (138 131 129 126 210 203 201 198) (5 5 3) simpleGrading (1 1 1)
	hex (137 130 131 138 209 202 203 210) (5 5 3) simpleGrading (1 1 1)
	hex (137 140 142 149 209 212 214 221) (5 5 3) simpleGrading (1 1 1)
	hex (138 141 140 137 210 213 212 209) (5 5 3) simpleGrading (1 1 1)
	hex (150 143 141 138 222 215 213 210) (5 5 3) simpleGrading (1 1 1)
	hex (149 142 143 150 221 214 215 222) (5 5 3) simpleGrading (1 1 1)

	hex (94 95 96 97 166 167 168 169) (5 5 3) simpleGrading (1 1 1)
	hex (92 94 97 94 164 166 169 166) (5 5 3) simpleGrading (1 1 1)
	hex (93 95 94 92 165 167 166 164) (5 5 3) simpleGrading (1 1 1)
	hex (95 96 95 93 167 168 167 165) (5 5 3) simpleGrading (1 1 1)
	hex (94 97 96 95 166 169 168 167) (5 5 3) simpleGrading (1 1 1)
	hex (106 107 108 109 178 179 180 181) (5 5 3) simpleGrading (1 1 1)
	hex (104 106 109 106 176 178 181 178) (5 5 3) simpleGrading (1 1 1)
	hex (105 107 106 104 177 179 178 176) (5 5 3) simpleGrading (1 1 1)
	hex (107 108 107 105 179 180 179 177) (5 5 3) simpleGrading (1 1 1)
	hex (106 109 108 107 178 181 180 179) (5 5 3) simpleGrading (1 1 1)
	hex (118 119 120 121 190 191 192 193) (5 5 3) simpleGrading (1 1 1)
	hex (116 118 121 118 188 190 193 190) (5 5 3) simpleGrading (1 1 1)
	hex (117 119 118 116 189 191 190 188) (5 5 3) simpleGrading (1 1 1)
	hex (119 120 119 117 191 192 191 189) (5 5 3) simpleGrading (1 1 1)
	hex (118 121 120 119 190 193 192 191) (5 5 3) simpleGrading (1 1 1)
	hex (130 131 132 133 202 203 204 205) (5 5 3) simpleGrading (1 1 1)
	hex (128 130 133 130 200 202 205 202) (5 5 3) simpleGrading (1 1 1)
	hex (129 131 130 128 201 203 202 200) (5 5 3) simpleGrading (1 1 1)
	hex (131 132 131 129 203 204 203 201) (5 5 3) simpleGrading (1 1 1)
	hex (130 133 132 131 202 205 204 203) (5 5 3) simpleGrading (1 1 1)
	hex (142 143 144 145 214 215 216 217) (5 5 3) simpleGrading (1 1 1)
	hex (140 142 145 142 212 214 217 214) (5 5 3) simpleGrading (1 1 1)
	hex (141 143 142 140 213 215 214 212) (5 5 3) simpleGrading (1 1 1)
	hex (143 144 143 141 215 216 215 213) (5 5 3) simpleGrading (1 1 1)
	hex (142 145 144 143 214 217 216 215) (5 5 3) simpleGrading (1 1 1)

);

edges
(
	arc 40 41 (900.0 1675.0 150)
	arc 41 43 (1150.0 1925.0 150)
	arc 43 42 (900.0 2175.0 150)
	arc 42 40 (650.0 1925.0 150)
	arc 48 49 (900.0 1675.0 150)
	arc 49 51 (1150.0 1925.0 150)
	arc 51 50 (900.0 2175.0 150)
	arc 50 48 (650.0 1925.0 150)
	arc 56 57 (900.0 1675.0 150)
	arc 57 59 (1150.0 1925.0 150)
	arc 59 58 (900.0 2175.0 150)
	arc 58 56 (650.0 1925.0 150)
	arc 64 65 (900.0 1675.0 150)
	arc 65 67 (1150.0 1925.0 150)
	arc 67 66 (900.0 2175.0 150)
	arc 66 64 (650.0 1925.0 150)
	arc 72 73 (900.0 1675.0 150)
	arc 73 75 (1150.0 1925.0 150)
	arc 75 74 (900.0 2175.0 150)
	arc 74 72 (650.0 1925.0 150)

	arc 92 93 (900.0 1675.0 1650)
	arc 93 95 (1150.0 1925.0 1650)
	arc 95 94 (900.0 2175.0 1650)
	arc 94 92 (650.0 1925.0 1650)
	arc 104 105 (900.0 1675.0 1650)
	arc 105 107 (1150.0 1925.0 1650)
	arc 107 106 (900.0 2175.0 1650)
	arc 106 104 (650.0 1925.0 1650)
	arc 116 117 (900.0 1675.0 1650)
	arc 117 119 (1150.0 1925.0 1650)
	arc 119 118 (900.0 2175.0 1650)
	arc 118 116 (650.0 1925.0 1650)
	arc 128 129 (900.0 1675.0 1650)
	arc 129 131 (1150.0 1925.0 1650)
	arc 131 130 (900.0 2175.0 1650)
	arc 130 128 (650.0 1925.0 1650)
	arc 140 141 (900.0 1675.0 1650)
	arc 141 143 (1150.0 1925.0 1650)
	arc 143 142 (900.0 2175.0 1650)
	arc 142 140 (650.0 1925.0 1650)

	arc 164 165 (900.0 1675.0 2150.0)
	arc 165 167 (1150.0 1925.0 2150.0)
	arc 167 166 (900.0 2175.0 2150.0)
	arc 166 164 (650.0 1925.0 2150.0)
	arc 176 177 (900.0 1675.0 2150.0)
	arc 177 179 (1150.0 1925.0 2150.0)
	arc 179 178 (900.0 2175.0 2150.0)
	arc 178 176 (650.0 1925.0 2150.0)
	arc 188 189 (900.0 1675.0 2150.0)
	arc 189 191 (1150.0 1925.0 2150.0)
	arc 191 190 (900.0 2175.0 2150.0)
	arc 190 188 (650.0 1925.0 2150.0)
	arc 200 201 (900.0 1675.0 2150.0)
	arc 201 203 (1150.0 1925.0 2150.0)
	arc 203 202 (900.0 2175.0 2150.0)
	arc 202 200 (650.0 1925.0 2150.0)
	arc 212 213 (900.0 1675.0 2150.0)
	arc 213 215 (1150.0 1925.0 2150.0)
	arc 215 214 (900.0 2175.0 2150.0)
	arc 214 212 (650.0 1925.0 2150.0)
);

patches
(
	patch bottom
	(
		(4 5 1 0)
		(5 6 2 1)
		(6 7 3 2)
		(8 9 5 4)
		(10 11 7 6)
		(12 13 9 8)
		(14 15 11 10)
		(16 17 13 12)
		(18 19 15 14)
		(20 21 17 16)
		(22 23 19 18)
		(24 25 21 20)
		(26 27 23 22)
		(28 29 25 24)
		(29 30 26 25)
		(30 31 27 26)
	)

	patch top
	(
		(156 157 161 160)
		(157 158 162 161)
		(158 159 163 162)
		(160 161 165 164)
		(162 163 167 166)
		(164 165 169 168)
		(166 167 171 170)
		(168 169 173 172)
		(170 171 175 174)
		(172 173 177 176)
		(174 175 179 178)
		(176 177 181 180)
		(178 179 183 182)
		(180 181 185 184)
		(181 182 186 185)
		(182 183 187 186)
		(161 164 166 173)
		(162 165 164 161)
		(174 167 165 162)
		(173 166 167 174)
		(173 176 178 185)
		(174 177 176 173)
		(186 179 177 174)
		(185 178 179 186)
		(185 188 190 197)
		(186 189 188 185)
		(198 191 189 186)
		(197 190 191 198)
		(197 200 202 209)
		(198 201 200 197)
		(210 203 201 198)
		(209 202 203 210)
		(209 212 214 221)
		(210 213 212 209)
		(222 215 213 210)
		(221 214 215 222)
		(166 167 168 169)
		(164 166 169 166)
		(165 167 166 164)
		(167 168 167 165)
		(166 169 168 167)
		(178 179 180 181)
		(176 178 181 178)
		(177 179 178 176)
		(179 180 179 177)
		(178 181 180 179)
		(190 191 192 193)
		(188 190 193 190)
		(189 191 190 188)
		(191 192 191 189)
		(190 193 192 191)
		(202 203 204 205)
		(200 202 205 202)
		(201 203 202 200)
		(203 204 203 201)
		(202 205 204 203)
		(214 215 216 217)
		(212 214 217 214)
		(213 215 214 212)
		(215 216 215 213)
		(214 217 216 215)
	)

	patch inlet
	(
		(32 36 4 0)
		(36 40 8 4)
		(40 44 12 8)
		(44 48 16 12)
		(48 52 20 16)
		(52 56 24 20)
		(56 60 28 24)
		(84 88 36 32)
		(88 92 40 36)
		(120 124 72 68)
		(96 100 48 44)
		(128 132 80 76)
		(104 108 56 52)
		(112 116 64 60)
		(172 176 104 100)
		(208 212 140 136)
		(184 188 116 112)
		(220 224 152 148)
		(156 160 88 84)
		(160 164 92 88)
		(196 200 128 124)
	)

	patch outlet
	(
		(3 7 39 35)
		(7 11 43 39)
		(11 15 47 43)
		(15 19 51 47)
		(19 23 55 51)
		(23 27 59 55)
		(27 31 63 59)
		(35 39 91 87)
		(39 43 95 91)
		(71 75 127 123)
		(47 51 103 99)
		(79 83 135 131)
		(55 59 111 107)
		(63 67 119 115)
		(103 107 179 175)
		(139 143 215 211)
		(115 119 191 187)
		(87 91 163 159)
		(151 155 227 223)
		(91 95 167 163)
		(127 131 203 199)
	)

	patch bristle
	(
		(9 41 37 5)
		(6 38 42 10)
		(13 45 41 9)
		(10 42 46 14)
		(17 49 45 13)
		(14 46 50 18)
		(21 53 49 17)
		(18 50 54 22)
		(25 57 53 21)
		(22 54 58 26)
		(45 42 40 37)
		(37 40 41 38)
		(38 41 43 46)
		(46 43 42 45)
		(53 50 48 45)
		(45 48 49 46)
		(46 49 51 54)
		(54 51 50 53)
		(61 58 56 53)
		(53 56 57 54)
		(54 57 59 62)
		(62 59 58 61)
		(69 66 64 61)
		(61 64 65 62)
		(62 65 67 70)
		(70 67 66 69)
		(77 74 72 69)
		(69 72 73 70)
		(70 73 75 78)
		(78 75 74 77)
		(97 96 95 94)
		(94 97 94 92)
		(92 94 95 93)
		(93 95 96 95)
		(95 96 97 94)
		(42 94 92 40)
		(40 92 93 41)
		(41 93 95 43)
		(43 95 94 42)
		(109 108 107 106)
		(102 109 106 100)
		(100 106 107 101)
		(101 107 108 103)
		(103 108 109 102)
		(50 102 100 48)
		(48 100 101 49)
		(49 101 103 51)
		(51 103 102 50)
		(121 120 119 118)
		(110 121 118 108)
		(108 118 119 109)
		(109 119 120 111)
		(111 120 121 110)
		(58 110 108 56)
		(56 108 109 57)
		(57 109 111 59)
		(59 111 110 58)
		(133 132 131 130)
		(118 133 130 116)
		(116 130 131 117)
		(117 131 132 119)
		(119 132 133 118)
		(66 118 116 64)
		(64 116 117 65)
		(65 117 119 67)
		(67 119 118 66)
		(145 144 143 142)
		(126 145 142 124)
		(124 142 143 125)
		(125 143 144 127)
		(127 144 145 126)
		(74 126 124 72)
		(72 124 125 73)
		(73 125 127 75)
		(75 127 126 74)
	)

	patch frontAndBackPlanes
	(
		(0 1 33 32)
		(1 2 34 33)
		(2 3 35 34)
		(32 33 85 84)
		(33 34 86 85)
		(34 35 87 86)
		(84 85 157 156)
		(85 86 158 157)
		(86 87 159 158)
		(28 60 61 29)
		(29 61 62 30)
		(30 62 63 31)
		(80 132 133 81)
		(81 133 134 82)
		(82 134 135 83)
		(152 224 225 153)
		(153 225 226 154)
		(154 226 227 155)
	)
);

mergePatchPairs
(
);


// ************************************************************************* //

