/*--------------------------------*- C++ -*----------------------------------*\
| =========                 |                                                 |
| \      /  F ield         | foam-extend: Open Source CFD                    |
|  \    /   O peration     | Version:     4.0                                |
|   \  /    A nd           | Web:         http://www.foam-extend.org         |
|    \/     M anipulation  |                                                 |
\*---------------------------------------------------------------------------*/
FoamFile
{
    version     2.0;
    format      ascii;
    class       dictionary;
    object      blockMeshDict;
}
// * * * * * * * * * * * * * * * * * * * * * * * * * * * * * * * * * * * * * //

convertToMeters 0.001;
vertices
(
	(0 0 0)      //0
	(99.5 0 0)      //1
	(105.5 0 0)      //2
	(205 0 0)      //3
	(0 54 0)      //4
	(99.5 54 0)      //5
	(105.5 54 0)      //6
	(205 54 0)      //7
	(0 60 0)      //8
	(99.5 60 0)      //9
	(105.5 60 0)      //10
	(205 60 0)      //11
	(0 66 0)      //12
	(99.5 66 0)      //13
	(105.5 66 0)      //14
	(205 66 0)      //15
	(0 72 0)      //16
	(99.5 72 0)      //17
	(105.5 72 0)      //18
	(205 72 0)      //19
	(0 78 0)      //20
	(99.5 78 0)      //21
	(105.5 78 0)      //22
	(205 78 0)      //23
	(0 84 0)      //24
	(99.5 84 0)      //25
	(105.5 84 0)      //26
	(205 84 0)      //27
	(0 90 0)      //28
	(99.5 90 0)      //29
	(105.5 90 0)      //30
	(205 90 0)      //31
	(0 96 0)      //32
	(99.5 96 0)      //33
	(105.5 96 0)      //34
	(205 96 0)      //35
	(0 150 0)      //36
	(99.5 150 0)      //37
	(105.5 150 0)      //38
	(205 150 0)      //39
	(0 0 8)      //40
	(99.5 0 8)      //41
	(105.5 0 8)      //42
	(205 0 8)      //43
	(0 54 8)      //44
	(99.5 54 8)      //45
	(105.5 54 8)      //46
	(205 54 8)      //47
	(101.4393 55.9393 8)      //48
	(103.5607 55.9393 8)      //49
	(102.1464 56.6464 8)      //50
	(102.8536 56.6464 8)      //51
	(102.1464 57.3536 8)      //52
	(102.8536 57.3536 8)      //53
	(101.4393 58.0607 8)      //54
	(103.5607 58.0607 8)      //55
	(0 60 8)      //56
	(99.5 60 8)      //57
	(105.5 60 8)      //58
	(205 60 8)      //59
	(101.4393 61.9393 8)      //60
	(103.5607 61.9393 8)      //61
	(102.1464 62.6464 8)      //62
	(102.8536 62.6464 8)      //63
	(102.1464 63.3536 8)      //64
	(102.8536 63.3536 8)      //65
	(101.4393 64.0607 8)      //66
	(103.5607 64.0607 8)      //67
	(0 66 8)      //68
	(99.5 66 8)      //69
	(105.5 66 8)      //70
	(205 66 8)      //71
	(101.4393 67.9393 8)      //72
	(103.5607 67.9393 8)      //73
	(102.1464 68.6464 8)      //74
	(102.8536 68.6464 8)      //75
	(102.1464 69.3536 8)      //76
	(102.8536 69.3536 8)      //77
	(101.4393 70.0607 8)      //78
	(103.5607 70.0607 8)      //79
	(0 72 8)      //80
	(99.5 72 8)      //81
	(105.5 72 8)      //82
	(205 72 8)      //83
	(101.4393 73.9393 8)      //84
	(103.5607 73.9393 8)      //85
	(102.1464 74.6464 8)      //86
	(102.8536 74.6464 8)      //87
	(102.1464 75.3536 8)      //88
	(102.8536 75.3536 8)      //89
	(101.4393 76.0607 8)      //90
	(103.5607 76.0607 8)      //91
	(0 78 8)      //92
	(99.5 78 8)      //93
	(105.5 78 8)      //94
	(205 78 8)      //95
	(101.4393 79.9393 8)      //96
	(103.5607 79.9393 8)      //97
	(102.1464 80.6464 8)      //98
	(102.8536 80.6464 8)      //99
	(102.1464 81.3536 8)      //100
	(102.8536 81.3536 8)      //101
	(101.4393 82.0607 8)      //102
	(103.5607 82.0607 8)      //103
	(0 84 8)      //104
	(99.5 84 8)      //105
	(105.5 84 8)      //106
	(205 84 8)      //107
	(101.4393 85.9393 8)      //108
	(103.5607 85.9393 8)      //109
	(102.1464 86.6464 8)      //110
	(102.8536 86.6464 8)      //111
	(102.1464 87.3536 8)      //112
	(102.8536 87.3536 8)      //113
	(101.4393 88.0607 8)      //114
	(103.5607 88.0607 8)      //115
	(0 90 8)      //116
	(99.5 90 8)      //117
	(105.5 90 8)      //118
	(205 90 8)      //119
	(101.4393 91.9393 8)      //120
	(103.5607 91.9393 8)      //121
	(102.1464 92.6464 8)      //122
	(102.8536 92.6464 8)      //123
	(102.1464 93.3536 8)      //124
	(102.8536 93.3536 8)      //125
	(101.4393 94.0607 8)      //126
	(103.5607 94.0607 8)      //127
	(0 96 8)      //128
	(99.5 96 8)      //129
	(105.5 96 8)      //130
	(205 96 8)      //131
	(0 150 8)      //132
	(99.5 150 8)      //133
	(105.5 150 8)      //134
	(205 150 8)      //135
	(0 0 88)      //136
	(99.5 0 88)      //137
	(105.5 0 88)      //138
	(205 0 88)      //139
	(0 54 88)      //140
	(99.5 54 88)      //141
	(105.5 54 88)      //142
	(205 54 88)      //143
	(101.4393 55.9393 88)      //144
	(103.5607 55.9393 88)      //145
	(102.1464 56.6464 88)      //146
	(102.8536 56.6464 88)      //147
	(102.3232 56.8232 88)      //148
	(102.6768 56.8232 88)      //149
	(102.3232 57.1768 88)      //150
	(102.6768 57.1768 88)      //151
	(102.1464 57.3536 88)      //152
	(102.8536 57.3536 88)      //153
	(101.4393 58.0607 88)      //154
	(103.5607 58.0607 88)      //155
	(0 60 88)      //156
	(99.5 60 88)      //157
	(105.5 60 88)      //158
	(205 60 88)      //159
	(101.4393 61.9393 88)      //160
	(103.5607 61.9393 88)      //161
	(102.1464 62.6464 88)      //162
	(102.8536 62.6464 88)      //163
	(102.3232 62.8232 88)      //164
	(102.6768 62.8232 88)      //165
	(102.3232 63.1768 88)      //166
	(102.6768 63.1768 88)      //167
	(102.1464 63.3536 88)      //168
	(102.8536 63.3536 88)      //169
	(101.4393 64.0607 88)      //170
	(103.5607 64.0607 88)      //171
	(0 66 88)      //172
	(99.5 66 88)      //173
	(105.5 66 88)      //174
	(205 66 88)      //175
	(101.4393 67.9393 88)      //176
	(103.5607 67.9393 88)      //177
	(102.1464 68.6464 88)      //178
	(102.8536 68.6464 88)      //179
	(102.3232 68.8232 88)      //180
	(102.6768 68.8232 88)      //181
	(102.3232 69.1768 88)      //182
	(102.6768 69.1768 88)      //183
	(102.1464 69.3536 88)      //184
	(102.8536 69.3536 88)      //185
	(101.4393 70.0607 88)      //186
	(103.5607 70.0607 88)      //187
	(0 72 88)      //188
	(99.5 72 88)      //189
	(105.5 72 88)      //190
	(205 72 88)      //191
	(101.4393 73.9393 88)      //192
	(103.5607 73.9393 88)      //193
	(102.1464 74.6464 88)      //194
	(102.8536 74.6464 88)      //195
	(102.3232 74.8232 88)      //196
	(102.6768 74.8232 88)      //197
	(102.3232 75.1768 88)      //198
	(102.6768 75.1768 88)      //199
	(102.1464 75.3536 88)      //200
	(102.8536 75.3536 88)      //201
	(101.4393 76.0607 88)      //202
	(103.5607 76.0607 88)      //203
	(0 78 88)      //204
	(99.5 78 88)      //205
	(105.5 78 88)      //206
	(205 78 88)      //207
	(101.4393 79.9393 88)      //208
	(103.5607 79.9393 88)      //209
	(102.1464 80.6464 88)      //210
	(102.8536 80.6464 88)      //211
	(102.3232 80.8232 88)      //212
	(102.6768 80.8232 88)      //213
	(102.3232 81.1768 88)      //214
	(102.6768 81.1768 88)      //215
	(102.1464 81.3536 88)      //216
	(102.8536 81.3536 88)      //217
	(101.4393 82.0607 88)      //218
	(103.5607 82.0607 88)      //219
	(0 84 88)      //220
	(99.5 84 88)      //221
	(105.5 84 88)      //222
	(205 84 88)      //223
	(101.4393 85.9393 88)      //224
	(103.5607 85.9393 88)      //225
	(102.1464 86.6464 88)      //226
	(102.8536 86.6464 88)      //227
	(102.3232 86.8232 88)      //228
	(102.6768 86.8232 88)      //229
	(102.3232 87.1768 88)      //230
	(102.6768 87.1768 88)      //231
	(102.1464 87.3536 88)      //232
	(102.8536 87.3536 88)      //233
	(101.4393 88.0607 88)      //234
	(103.5607 88.0607 88)      //235
	(0 90 88)      //236
	(99.5 90 88)      //237
	(105.5 90 88)      //238
	(205 90 88)      //239
	(101.4393 91.9393 88)      //240
	(103.5607 91.9393 88)      //241
	(102.1464 92.6464 88)      //242
	(102.8536 92.6464 88)      //243
	(102.3232 92.8232 88)      //244
	(102.6768 92.8232 88)      //245
	(102.3232 93.1768 88)      //246
	(102.6768 93.1768 88)      //247
	(102.1464 93.3536 88)      //248
	(102.8536 93.3536 88)      //249
	(101.4393 94.0607 88)      //250
	(103.5607 94.0607 88)      //251
	(0 96 88)      //252
	(99.5 96 88)      //253
	(105.5 96 88)      //254
	(205 96 88)      //255
	(0 150 88)      //256
	(99.5 150 88)      //257
	(105.5 150 88)      //258
	(205 150 88)      //259
	(0 0 128)      //260
	(99.5 0 128)      //261
	(105.5 0 128)      //262
	(205 0 128)      //263
	(0 54 128)      //264
	(99.5 54 128)      //265
	(105.5 54 128)      //266
	(205 54 128)      //267
	(101.4393 55.9393 128)      //268
	(103.5607 55.9393 128)      //269
	(102.1464 56.6464 128)      //270
	(102.8536 56.6464 128)      //271
	(102.3232 56.8232 128)      //272
	(102.6768 56.8232 128)      //273
	(102.3232 57.1768 128)      //274
	(102.6768 57.1768 128)      //275
	(102.1464 57.3536 128)      //276
	(102.8536 57.3536 128)      //277
	(101.4393 58.0607 128)      //278
	(103.5607 58.0607 128)      //279
	(0 60 128)      //280
	(99.5 60 128)      //281
	(105.5 60 128)      //282
	(205 60 128)      //283
	(101.4393 61.9393 128)      //284
	(103.5607 61.9393 128)      //285
	(102.1464 62.6464 128)      //286
	(102.8536 62.6464 128)      //287
	(102.3232 62.8232 128)      //288
	(102.6768 62.8232 128)      //289
	(102.3232 63.1768 128)      //290
	(102.6768 63.1768 128)      //291
	(102.1464 63.3536 128)      //292
	(102.8536 63.3536 128)      //293
	(101.4393 64.0607 128)      //294
	(103.5607 64.0607 128)      //295
	(0 66 128)      //296
	(99.5 66 128)      //297
	(105.5 66 128)      //298
	(205 66 128)      //299
	(101.4393 67.9393 128)      //300
	(103.5607 67.9393 128)      //301
	(102.1464 68.6464 128)      //302
	(102.8536 68.6464 128)      //303
	(102.3232 68.8232 128)      //304
	(102.6768 68.8232 128)      //305
	(102.3232 69.1768 128)      //306
	(102.6768 69.1768 128)      //307
	(102.1464 69.3536 128)      //308
	(102.8536 69.3536 128)      //309
	(101.4393 70.0607 128)      //310
	(103.5607 70.0607 128)      //311
	(0 72 128)      //312
	(99.5 72 128)      //313
	(105.5 72 128)      //314
	(205 72 128)      //315
	(101.4393 73.9393 128)      //316
	(103.5607 73.9393 128)      //317
	(102.1464 74.6464 128)      //318
	(102.8536 74.6464 128)      //319
	(102.3232 74.8232 128)      //320
	(102.6768 74.8232 128)      //321
	(102.3232 75.1768 128)      //322
	(102.6768 75.1768 128)      //323
	(102.1464 75.3536 128)      //324
	(102.8536 75.3536 128)      //325
	(101.4393 76.0607 128)      //326
	(103.5607 76.0607 128)      //327
	(0 78 128)      //328
	(99.5 78 128)      //329
	(105.5 78 128)      //330
	(205 78 128)      //331
	(101.4393 79.9393 128)      //332
	(103.5607 79.9393 128)      //333
	(102.1464 80.6464 128)      //334
	(102.8536 80.6464 128)      //335
	(102.3232 80.8232 128)      //336
	(102.6768 80.8232 128)      //337
	(102.3232 81.1768 128)      //338
	(102.6768 81.1768 128)      //339
	(102.1464 81.3536 128)      //340
	(102.8536 81.3536 128)      //341
	(101.4393 82.0607 128)      //342
	(103.5607 82.0607 128)      //343
	(0 84 128)      //344
	(99.5 84 128)      //345
	(105.5 84 128)      //346
	(205 84 128)      //347
	(101.4393 85.9393 128)      //348
	(103.5607 85.9393 128)      //349
	(102.1464 86.6464 128)      //350
	(102.8536 86.6464 128)      //351
	(102.3232 86.8232 128)      //352
	(102.6768 86.8232 128)      //353
	(102.3232 87.1768 128)      //354
	(102.6768 87.1768 128)      //355
	(102.1464 87.3536 128)      //356
	(102.8536 87.3536 128)      //357
	(101.4393 88.0607 128)      //358
	(103.5607 88.0607 128)      //359
	(0 90 128)      //360
	(99.5 90 128)      //361
	(105.5 90 128)      //362
	(205 90 128)      //363
	(101.4393 91.9393 128)      //364
	(103.5607 91.9393 128)      //365
	(102.1464 92.6464 128)      //366
	(102.8536 92.6464 128)      //367
	(102.3232 92.8232 128)      //368
	(102.6768 92.8232 128)      //369
	(102.3232 93.1768 128)      //370
	(102.6768 93.1768 128)      //371
	(102.1464 93.3536 128)      //372
	(102.8536 93.3536 128)      //373
	(101.4393 94.0607 128)      //374
	(103.5607 94.0607 128)      //375
	(0 96 128)      //376
	(99.5 96 128)      //377
	(105.5 96 128)      //378
	(205 96 128)      //379
	(0 150 128)      //380
	(99.5 150 128)      //381
	(105.5 150 128)      //382
	(205 150 128)      //383

);

blocks
(
	hex (0 1 5 4 40 41 45 44) (50 30 5) simpleGrading (0.5 0.5 1)
	hex (4 5 9 8 44 45 57 56) (50 5 5) simpleGrading (0.5 1 1)
	hex (8 9 13 12 56 57 69 68) (50 5 5) simpleGrading (0.5 1 1)
	hex (12 13 17 16 68 69 81 80) (50 5 5) simpleGrading (0.5 1 1)
	hex (16 17 21 20 80 81 93 92) (50 5 5) simpleGrading (0.5 1 1)
	hex (20 21 25 24 92 93 105 104) (50 5 5) simpleGrading (0.5 1 1)
	hex (24 25 29 28 104 105 117 116) (50 5 5) simpleGrading (0.5 1 1)
	hex (28 29 33 32 116 117 129 128) (50 5 5) simpleGrading (0.5 1 1)
	hex (32 33 37 36 128 129 133 132) (50 30 5) simpleGrading (0.5 2 1)

	hex (2 3 7 6 42 43 47 46) (50 30 5) simpleGrading (2 0.5 1)
	hex (6 7 11 10 46 47 59 58) (50 5 5) simpleGrading (2 1 1)
	hex (10 11 15 14 58 59 71 70) (50 5 5) simpleGrading (2 1 1)
	hex (14 15 19 18 70 71 83 82) (50 5 5) simpleGrading (2 1 1)
	hex (18 19 23 22 82 83 95 94) (50 5 5) simpleGrading (2 1 1)
	hex (22 23 27 26 94 95 107 106) (50 5 5) simpleGrading (2 1 1)
	hex (26 27 31 30 106 107 119 118) (50 5 5) simpleGrading (2 1 1)
	hex (30 31 35 34 118 119 131 130) (50 5 5) simpleGrading (2 1 1)
	hex (34 35 39 38 130 131 135 134) (50 30 5) simpleGrading (2 2 1)

	hex (1 2 6 5 41 42 46 45) (5 30 5) simpleGrading (1 0.5 1)
	hex (33 34 38 37 129 130 134 133) (5 30 5) simpleGrading (1 2 1)

	hex (40 41 45 44 136 137 141 140) (50 30 160) simpleGrading (0.5 0.5 1)
	hex (44 45 57 56 140 141 157 156) (50 5 160) simpleGrading (0.5 1 1)
	hex (56 57 69 68 156 157 173 172) (50 5 160) simpleGrading (0.5 1 1)
	hex (68 69 81 80 172 173 189 188) (50 5 160) simpleGrading (0.5 1 1)
	hex (80 81 93 92 188 189 205 204) (50 5 160) simpleGrading (0.5 1 1)
	hex (92 93 105 104 204 205 221 220) (50 5 160) simpleGrading (0.5 1 1)
	hex (104 105 117 116 220 221 237 236) (50 5 160) simpleGrading (0.5 1 1)
	hex (116 117 129 128 236 237 253 252) (50 5 160) simpleGrading (0.5 1 1)
	hex (128 129 133 132 252 253 257 256) (50 30 160) simpleGrading (0.5 2 1)

	hex (42 43 47 46 138 139 143 142) (50 30 160) simpleGrading (2 0.5 1)
	hex (46 47 59 58 142 143 159 158) (50 5 160) simpleGrading (2 1 1)
	hex (58 59 71 70 158 159 175 174) (50 5 160) simpleGrading (2 1 1)
	hex (70 71 83 82 174 175 191 190) (50 5 160) simpleGrading (2 1 1)
	hex (82 83 95 94 190 191 207 206) (50 5 160) simpleGrading (2 1 1)
	hex (94 95 107 106 206 207 223 222) (50 5 160) simpleGrading (2 1 1)
	hex (106 107 119 118 222 223 239 238) (50 5 160) simpleGrading (2 1 1)
	hex (118 119 131 130 238 239 255 254) (50 5 160) simpleGrading (2 1 1)
	hex (130 131 135 134 254 255 259 258) (50 30 160) simpleGrading (2 2 1)

	hex (41 42 46 45 137 138 142 141) (5 30 160) simpleGrading (1 0.5 1)
	hex (129 130 134 133 253 254 258 257) (5 30 160) simpleGrading (1 2 1)

	hex (45 48 54 57 141 144 154 157) (4 5 160) simpleGrading (0.5 1 1)
	hex (46 49 48 45 142 145 144 141) (4 5 160) simpleGrading (0.5 1 1)
	hex (58 55 49 46 158 155 145 142) (4 5 160) simpleGrading (0.5 1 1)
	hex (57 54 55 58 157 154 155 158) (4 5 160) simpleGrading (0.5 1 1)
	hex (48 50 52 54 144 146 152 154) (4 5 160) simpleGrading (0.5 1 1)
	hex (49 51 50 48 145 147 146 144) (4 5 160) simpleGrading (0.5 1 1)
	hex (55 53 51 49 155 153 147 145) (4 5 160) simpleGrading (0.5 1 1)
	hex (54 52 53 55 154 152 153 155) (4 5 160) simpleGrading (0.5 1 1)
	hex (57 60 66 69 157 160 170 173) (4 5 160) simpleGrading (0.5 1 1)
	hex (58 61 60 57 158 161 160 157) (4 5 160) simpleGrading (0.5 1 1)
	hex (70 67 61 58 174 171 161 158) (4 5 160) simpleGrading (0.5 1 1)
	hex (69 66 67 70 173 170 171 174) (4 5 160) simpleGrading (0.5 1 1)
	hex (60 62 64 66 160 162 168 170) (4 5 160) simpleGrading (0.5 1 1)
	hex (61 63 62 60 161 163 162 160) (4 5 160) simpleGrading (0.5 1 1)
	hex (67 65 63 61 171 169 163 161) (4 5 160) simpleGrading (0.5 1 1)
	hex (66 64 65 67 170 168 169 171) (4 5 160) simpleGrading (0.5 1 1)
	hex (69 72 78 81 173 176 186 189) (4 5 160) simpleGrading (0.5 1 1)
	hex (70 73 72 69 174 177 176 173) (4 5 160) simpleGrading (0.5 1 1)
	hex (82 79 73 70 190 187 177 174) (4 5 160) simpleGrading (0.5 1 1)
	hex (81 78 79 82 189 186 187 190) (4 5 160) simpleGrading (0.5 1 1)
	hex (72 74 76 78 176 178 184 186) (4 5 160) simpleGrading (0.5 1 1)
	hex (73 75 74 72 177 179 178 176) (4 5 160) simpleGrading (0.5 1 1)
	hex (79 77 75 73 187 185 179 177) (4 5 160) simpleGrading (0.5 1 1)
	hex (78 76 77 79 186 184 185 187) (4 5 160) simpleGrading (0.5 1 1)
	hex (81 84 90 93 189 192 202 205) (4 5 160) simpleGrading (0.5 1 1)
	hex (82 85 84 81 190 193 192 189) (4 5 160) simpleGrading (0.5 1 1)
	hex (94 91 85 82 206 203 193 190) (4 5 160) simpleGrading (0.5 1 1)
	hex (93 90 91 94 205 202 203 206) (4 5 160) simpleGrading (0.5 1 1)
	hex (84 86 88 90 192 194 200 202) (4 5 160) simpleGrading (0.5 1 1)
	hex (85 87 86 84 193 195 194 192) (4 5 160) simpleGrading (0.5 1 1)
	hex (91 89 87 85 203 201 195 193) (4 5 160) simpleGrading (0.5 1 1)
	hex (90 88 89 91 202 200 201 203) (4 5 160) simpleGrading (0.5 1 1)
	hex (93 96 102 105 205 208 218 221) (4 5 160) simpleGrading (0.5 1 1)
	hex (94 97 96 93 206 209 208 205) (4 5 160) simpleGrading (0.5 1 1)
	hex (106 103 97 94 222 219 209 206) (4 5 160) simpleGrading (0.5 1 1)
	hex (105 102 103 106 221 218 219 222) (4 5 160) simpleGrading (0.5 1 1)
	hex (96 98 100 102 208 210 216 218) (4 5 160) simpleGrading (0.5 1 1)
	hex (97 99 98 96 209 211 210 208) (4 5 160) simpleGrading (0.5 1 1)
	hex (103 101 99 97 219 217 211 209) (4 5 160) simpleGrading (0.5 1 1)
	hex (102 100 101 103 218 216 217 219) (4 5 160) simpleGrading (0.5 1 1)
	hex (105 108 114 117 221 224 234 237) (4 5 160) simpleGrading (0.5 1 1)
	hex (106 109 108 105 222 225 224 221) (4 5 160) simpleGrading (0.5 1 1)
	hex (118 115 109 106 238 235 225 222) (4 5 160) simpleGrading (0.5 1 1)
	hex (117 114 115 118 237 234 235 238) (4 5 160) simpleGrading (0.5 1 1)
	hex (108 110 112 114 224 226 232 234) (4 5 160) simpleGrading (0.5 1 1)
	hex (109 111 110 108 225 227 226 224) (4 5 160) simpleGrading (0.5 1 1)
	hex (115 113 111 109 235 233 227 225) (4 5 160) simpleGrading (0.5 1 1)
	hex (114 112 113 115 234 232 233 235) (4 5 160) simpleGrading (0.5 1 1)
	hex (117 120 126 129 237 240 250 253) (4 5 160) simpleGrading (0.5 1 1)
	hex (118 121 120 117 238 241 240 237) (4 5 160) simpleGrading (0.5 1 1)
	hex (130 127 121 118 254 251 241 238) (4 5 160) simpleGrading (0.5 1 1)
	hex (129 126 127 130 253 250 251 254) (4 5 160) simpleGrading (0.5 1 1)
	hex (120 122 124 126 240 242 248 250) (4 5 160) simpleGrading (0.5 1 1)
	hex (121 123 122 120 241 243 242 240) (4 5 160) simpleGrading (0.5 1 1)
	hex (127 125 123 121 251 249 243 241) (4 5 160) simpleGrading (0.5 1 1)
	hex (126 124 125 127 250 248 249 251) (4 5 160) simpleGrading (0.5 1 1)

	hex (136 137 141 140 260 261 265 264) (50 30 80) simpleGrading (0.5 0.5 1)
	hex (140 141 157 156 264 265 281 280) (50 5 80) simpleGrading (0.5 1 1)
	hex (156 157 173 172 280 281 297 296) (50 5 80) simpleGrading (0.5 1 1)
	hex (172 173 189 188 296 297 313 312) (50 5 80) simpleGrading (0.5 1 1)
	hex (188 189 205 204 312 313 329 328) (50 5 80) simpleGrading (0.5 1 1)
	hex (204 205 221 220 328 329 345 344) (50 5 80) simpleGrading (0.5 1 1)
	hex (220 221 237 236 344 345 361 360) (50 5 80) simpleGrading (0.5 1 1)
	hex (236 237 253 252 360 361 377 376) (50 5 80) simpleGrading (0.5 1 1)
	hex (252 253 257 256 376 377 381 380) (50 30 80) simpleGrading (0.5 2 1)

	hex (138 139 143 142 262 263 267 266) (50 30 80) simpleGrading (2 0.5 1)
	hex (142 143 159 158 266 267 283 282) (50 5 80) simpleGrading (2 1 1)
	hex (158 159 175 174 282 283 299 298) (50 5 80) simpleGrading (2 1 1)
	hex (174 175 191 190 298 299 315 314) (50 5 80) simpleGrading (2 1 1)
	hex (190 191 207 206 314 315 331 330) (50 5 80) simpleGrading (2 1 1)
	hex (206 207 223 222 330 331 347 346) (50 5 80) simpleGrading (2 1 1)
	hex (222 223 239 238 346 347 363 362) (50 5 80) simpleGrading (2 1 1)
	hex (238 239 255 254 362 363 379 378) (50 5 80) simpleGrading (2 1 1)
	hex (254 255 259 258 378 379 383 382) (50 30 80) simpleGrading (2 2 1)

	hex (137 138 142 141 261 262 266 265) (5 30 80) simpleGrading (1 0.5 1)
	hex (253 254 258 257 377 378 382 381) (5 30 80) simpleGrading (1 2 1)

	hex (141 144 154 157 265 268 278 281) (4 5 80) simpleGrading (0.5 1 1)
	hex (142 145 144 141 266 269 268 265) (4 5 80) simpleGrading (0.5 1 1)
	hex (158 155 145 142 282 279 269 266) (4 5 80) simpleGrading (0.5 1 1)
	hex (157 154 155 158 281 278 279 282) (4 5 80) simpleGrading (0.5 1 1)
	hex (144 146 152 154 268 270 276 278) (4 5 80) simpleGrading (0.5 1 1)
	hex (145 147 146 144 269 271 270 268) (4 5 80) simpleGrading (0.5 1 1)
	hex (155 153 147 145 279 277 271 269) (4 5 80) simpleGrading (0.5 1 1)
	hex (154 152 153 155 278 276 277 279) (4 5 80) simpleGrading (0.5 1 1)
	hex (157 160 170 173 281 284 294 297) (4 5 80) simpleGrading (0.5 1 1)
	hex (158 161 160 157 282 285 284 281) (4 5 80) simpleGrading (0.5 1 1)
	hex (174 171 161 158 298 295 285 282) (4 5 80) simpleGrading (0.5 1 1)
	hex (173 170 171 174 297 294 295 298) (4 5 80) simpleGrading (0.5 1 1)
	hex (160 162 168 170 284 286 292 294) (4 5 80) simpleGrading (0.5 1 1)
	hex (161 163 162 160 285 287 286 284) (4 5 80) simpleGrading (0.5 1 1)
	hex (171 169 163 161 295 293 287 285) (4 5 80) simpleGrading (0.5 1 1)
	hex (170 168 169 171 294 292 293 295) (4 5 80) simpleGrading (0.5 1 1)
	hex (173 176 186 189 297 300 310 313) (4 5 80) simpleGrading (0.5 1 1)
	hex (174 177 176 173 298 301 300 297) (4 5 80) simpleGrading (0.5 1 1)
	hex (190 187 177 174 314 311 301 298) (4 5 80) simpleGrading (0.5 1 1)
	hex (189 186 187 190 313 310 311 314) (4 5 80) simpleGrading (0.5 1 1)
	hex (176 178 184 186 300 302 308 310) (4 5 80) simpleGrading (0.5 1 1)
	hex (177 179 178 176 301 303 302 300) (4 5 80) simpleGrading (0.5 1 1)
	hex (187 185 179 177 311 309 303 301) (4 5 80) simpleGrading (0.5 1 1)
	hex (186 184 185 187 310 308 309 311) (4 5 80) simpleGrading (0.5 1 1)
	hex (189 192 202 205 313 316 326 329) (4 5 80) simpleGrading (0.5 1 1)
	hex (190 193 192 189 314 317 316 313) (4 5 80) simpleGrading (0.5 1 1)
	hex (206 203 193 190 330 327 317 314) (4 5 80) simpleGrading (0.5 1 1)
	hex (205 202 203 206 329 326 327 330) (4 5 80) simpleGrading (0.5 1 1)
	hex (192 194 200 202 316 318 324 326) (4 5 80) simpleGrading (0.5 1 1)
	hex (193 195 194 192 317 319 318 316) (4 5 80) simpleGrading (0.5 1 1)
	hex (203 201 195 193 327 325 319 317) (4 5 80) simpleGrading (0.5 1 1)
	hex (202 200 201 203 326 324 325 327) (4 5 80) simpleGrading (0.5 1 1)
	hex (205 208 218 221 329 332 342 345) (4 5 80) simpleGrading (0.5 1 1)
	hex (206 209 208 205 330 333 332 329) (4 5 80) simpleGrading (0.5 1 1)
	hex (222 219 209 206 346 343 333 330) (4 5 80) simpleGrading (0.5 1 1)
	hex (221 218 219 222 345 342 343 346) (4 5 80) simpleGrading (0.5 1 1)
	hex (208 210 216 218 332 334 340 342) (4 5 80) simpleGrading (0.5 1 1)
	hex (209 211 210 208 333 335 334 332) (4 5 80) simpleGrading (0.5 1 1)
	hex (219 217 211 209 343 341 335 333) (4 5 80) simpleGrading (0.5 1 1)
	hex (218 216 217 219 342 340 341 343) (4 5 80) simpleGrading (0.5 1 1)
	hex (221 224 234 237 345 348 358 361) (4 5 80) simpleGrading (0.5 1 1)
	hex (222 225 224 221 346 349 348 345) (4 5 80) simpleGrading (0.5 1 1)
	hex (238 235 225 222 362 359 349 346) (4 5 80) simpleGrading (0.5 1 1)
	hex (237 234 235 238 361 358 359 362) (4 5 80) simpleGrading (0.5 1 1)
	hex (224 226 232 234 348 350 356 358) (4 5 80) simpleGrading (0.5 1 1)
	hex (225 227 226 224 349 351 350 348) (4 5 80) simpleGrading (0.5 1 1)
	hex (235 233 227 225 359 357 351 349) (4 5 80) simpleGrading (0.5 1 1)
	hex (234 232 233 235 358 356 357 359) (4 5 80) simpleGrading (0.5 1 1)
	hex (237 240 250 253 361 364 374 377) (4 5 80) simpleGrading (0.5 1 1)
	hex (238 241 240 237 362 365 364 361) (4 5 80) simpleGrading (0.5 1 1)
	hex (254 251 241 238 378 375 365 362) (4 5 80) simpleGrading (0.5 1 1)
	hex (253 250 251 254 377 374 375 378) (4 5 80) simpleGrading (0.5 1 1)
	hex (240 242 248 250 364 366 372 374) (4 5 80) simpleGrading (0.5 1 1)
	hex (241 243 242 240 365 367 366 364) (4 5 80) simpleGrading (0.5 1 1)
	hex (251 249 243 241 375 373 367 365) (4 5 80) simpleGrading (0.5 1 1)
	hex (250 248 249 251 374 372 373 375) (4 5 80) simpleGrading (0.5 1 1)

	hex (148 149 151 150 272 273 275 274) (5 5 80) simpleGrading (1 1 1)
	hex (146 148 150 152 270 272 274 276) (3 5 80) simpleGrading (1 1 1)
	hex (147 149 148 146 271 273 272 270) (3 5 80) simpleGrading (1 1 1)
	hex (153 151 149 147 277 275 273 271) (3 5 80) simpleGrading (1 1 1)
	hex (152 150 151 153 276 274 275 277) (3 5 80) simpleGrading (1 1 1)
	hex (164 165 167 166 288 289 291 290) (5 5 80) simpleGrading (1 1 1)
	hex (162 164 166 168 286 288 290 292) (3 5 80) simpleGrading (1 1 1)
	hex (163 165 164 162 287 289 288 286) (3 5 80) simpleGrading (1 1 1)
	hex (169 167 165 163 293 291 289 287) (3 5 80) simpleGrading (1 1 1)
	hex (168 166 167 169 292 290 291 293) (3 5 80) simpleGrading (1 1 1)
	hex (180 181 183 182 304 305 307 306) (5 5 80) simpleGrading (1 1 1)
	hex (178 180 182 184 302 304 306 308) (3 5 80) simpleGrading (1 1 1)
	hex (179 181 180 178 303 305 304 302) (3 5 80) simpleGrading (1 1 1)
	hex (185 183 181 179 309 307 305 303) (3 5 80) simpleGrading (1 1 1)
	hex (184 182 183 185 308 306 307 309) (3 5 80) simpleGrading (1 1 1)
	hex (196 197 199 198 320 321 323 322) (5 5 80) simpleGrading (1 1 1)
	hex (194 196 198 200 318 320 322 324) (3 5 80) simpleGrading (1 1 1)
	hex (195 197 196 194 319 321 320 318) (3 5 80) simpleGrading (1 1 1)
	hex (201 199 197 195 325 323 321 319) (3 5 80) simpleGrading (1 1 1)
	hex (200 198 199 201 324 322 323 325) (3 5 80) simpleGrading (1 1 1)
	hex (212 213 215 214 336 337 339 338) (5 5 80) simpleGrading (1 1 1)
	hex (210 212 214 216 334 336 338 340) (3 5 80) simpleGrading (1 1 1)
	hex (211 213 212 210 335 337 336 334) (3 5 80) simpleGrading (1 1 1)
	hex (217 215 213 211 341 339 337 335) (3 5 80) simpleGrading (1 1 1)
	hex (216 214 215 217 340 338 339 341) (3 5 80) simpleGrading (1 1 1)
	hex (228 229 231 230 352 353 355 354) (5 5 80) simpleGrading (1 1 1)
	hex (226 228 230 232 350 352 354 356) (3 5 80) simpleGrading (1 1 1)
	hex (227 229 228 226 351 353 352 350) (3 5 80) simpleGrading (1 1 1)
	hex (233 231 229 227 357 355 353 351) (3 5 80) simpleGrading (1 1 1)
	hex (232 230 231 233 356 354 355 357) (3 5 80) simpleGrading (1 1 1)
	hex (244 245 247 246 368 369 371 370) (5 5 80) simpleGrading (1 1 1)
	hex (242 244 246 248 366 368 370 372) (3 5 80) simpleGrading (1 1 1)
	hex (243 245 244 242 367 369 368 366) (3 5 80) simpleGrading (1 1 1)
	hex (249 247 245 243 373 371 369 367) (3 5 80) simpleGrading (1 1 1)
	hex (248 246 247 249 372 370 371 373) (3 5 80) simpleGrading (1 1 1)

);

edges
(
	arc 48 49 (102.5 55.5 8)
	arc 49 55 (104.0 57.0 8)
	arc 55 54 (102.5 58.5 8)
	arc 54 48 (101.0 57.0 8)
	arc 60 61 (102.5 61.5 8)
	arc 61 67 (104.0 63.0 8)
	arc 67 66 (102.5 64.5 8)
	arc 66 60 (101.0 63.0 8)
	arc 72 73 (102.5 67.5 8)
	arc 73 79 (104.0 69.0 8)
	arc 79 78 (102.5 70.5 8)
	arc 78 72 (101.0 69.0 8)
	arc 84 85 (102.5 73.5 8)
	arc 85 91 (104.0 75.0 8)
	arc 91 90 (102.5 76.5 8)
	arc 90 84 (101.0 75.0 8)
	arc 96 97 (102.5 79.5 8)
	arc 97 103 (104.0 81.0 8)
	arc 103 102 (102.5 82.5 8)
	arc 102 96 (101.0 81.0 8)
	arc 108 109 (102.5 85.5 8)
	arc 109 115 (104.0 87.0 8)
	arc 115 114 (102.5 88.5 8)
	arc 114 108 (101.0 87.0 8)
	arc 120 121 (102.5 91.5 8)
	arc 121 127 (104.0 93.0 8)
	arc 127 126 (102.5 94.5 8)
	arc 126 120 (101.0 93.0 8)

	arc 50 51 (102.5 56.5 8)
	arc 51 53 (103.0 57.0 8)
	arc 53 52 (102.5 57.5 8)
	arc 52 50 (102.0 57.0 8)
	arc 62 63 (102.5 62.5 8)
	arc 63 65 (103.0 63.0 8)
	arc 65 64 (102.5 63.5 8)
	arc 64 62 (102.0 63.0 8)
	arc 74 75 (102.5 68.5 8)
	arc 75 77 (103.0 69.0 8)
	arc 77 76 (102.5 69.5 8)
	arc 76 74 (102.0 69.0 8)
	arc 86 87 (102.5 74.5 8)
	arc 87 89 (103.0 75.0 8)
	arc 89 88 (102.5 75.5 8)
	arc 88 86 (102.0 75.0 8)
	arc 98 99 (102.5 80.5 8)
	arc 99 101 (103.0 81.0 8)
	arc 101 100 (102.5 81.5 8)
	arc 100 98 (102.0 81.0 8)
	arc 110 111 (102.5 86.5 8)
	arc 111 113 (103.0 87.0 8)
	arc 113 112 (102.5 87.5 8)
	arc 112 110 (102.0 87.0 8)
	arc 122 123 (102.5 92.5 8)
	arc 123 125 (103.0 93.0 8)
	arc 125 124 (102.5 93.5 8)
	arc 124 122 (102.0 93.0 8)

	arc 144 145 (102.5 55.5 88)
	arc 145 155 (104.0 57.0 88)
	arc 155 154 (102.5 58.5 88)
	arc 154 144 (101.0 57.0 88)
	arc 160 161 (102.5 61.5 88)
	arc 161 171 (104.0 63.0 88)
	arc 171 170 (102.5 64.5 88)
	arc 170 160 (101.0 63.0 88)
	arc 176 177 (102.5 67.5 88)
	arc 177 187 (104.0 69.0 88)
	arc 187 186 (102.5 70.5 88)
	arc 186 176 (101.0 69.0 88)
	arc 192 193 (102.5 73.5 88)
	arc 193 203 (104.0 75.0 88)
	arc 203 202 (102.5 76.5 88)
	arc 202 192 (101.0 75.0 88)
	arc 208 209 (102.5 79.5 88)
	arc 209 219 (104.0 81.0 88)
	arc 219 218 (102.5 82.5 88)
	arc 218 208 (101.0 81.0 88)
	arc 224 225 (102.5 85.5 88)
	arc 225 235 (104.0 87.0 88)
	arc 235 234 (102.5 88.5 88)
	arc 234 224 (101.0 87.0 88)
	arc 240 241 (102.5 91.5 88)
	arc 241 251 (104.0 93.0 88)
	arc 251 250 (102.5 94.5 88)
	arc 250 240 (101.0 93.0 88)

	arc 146 147 (102.5 56.5 88)
	arc 147 153 (103.0 57.0 88)
	arc 153 152 (102.5 57.5 88)
	arc 152 146 (102.0 57.0 88)
	arc 162 163 (102.5 62.5 88)
	arc 163 169 (103.0 63.0 88)
	arc 169 168 (102.5 63.5 88)
	arc 168 162 (102.0 63.0 88)
	arc 178 179 (102.5 68.5 88)
	arc 179 185 (103.0 69.0 88)
	arc 185 184 (102.5 69.5 88)
	arc 184 178 (102.0 69.0 88)
	arc 194 195 (102.5 74.5 88)
	arc 195 201 (103.0 75.0 88)
	arc 201 200 (102.5 75.5 88)
	arc 200 194 (102.0 75.0 88)
	arc 210 211 (102.5 80.5 88)
	arc 211 217 (103.0 81.0 88)
	arc 217 216 (102.5 81.5 88)
	arc 216 210 (102.0 81.0 88)
	arc 226 227 (102.5 86.5 88)
	arc 227 233 (103.0 87.0 88)
	arc 233 232 (102.5 87.5 88)
	arc 232 226 (102.0 87.0 88)
	arc 242 243 (102.5 92.5 88)
	arc 243 249 (103.0 93.0 88)
	arc 249 248 (102.5 93.5 88)
	arc 248 242 (102.0 93.0 88)

	arc 268 269 (102.5 55.5 128.0)
	arc 269 279 (104.0 57.0 128.0)
	arc 279 278 (102.5 58.5 128.0)