/*--------------------------------*- C++ -*----------------------------------*\
| =========                 |                                                 |
| \      /  F ield         | foam-extend: Open Source CFD                    |
|  \    /   O peration     | Version:     4.0                                |
|   \  /    A nd           | Web:         http://www.foam-extend.org         |
|    \/     M anipulation  |                                                 |
\*---------------------------------------------------------------------------*/
FoamFile
{
    version     2.0;
    format      ascii;
    class       dictionary;
    object      blockMeshDict;
}
// * * * * * * * * * * * * * * * * * * * * * * * * * * * * * * * * * * * * * //

convertToMeters 0.001;
vertices
(
	(0 0 0)      //0
	(102 0 0)      //1
	(108 0 0)      //2
	(210 0 0)      //3
	(0 36 0)      //4
	(102 36 0)      //5
	(108 36 0)      //6
	(210 36 0)      //7
	(0 42 0)      //8
	(102 42 0)      //9
	(108 42 0)      //10
	(210 42 0)      //11
	(0 48 0)      //12
	(102 48 0)      //13
	(108 48 0)      //14
	(210 48 0)      //15
	(0 54 0)      //16
	(102 54 0)      //17
	(108 54 0)      //18
	(210 54 0)      //19
	(0 90 0)      //20
	(102 90 0)      //21
	(108 90 0)      //22
	(210 90 0)      //23
	(0 0 1)      //24
	(102 0 1)      //25
	(108 0 1)      //26
	(210 0 1)      //27
	(0 36 1)      //28
	(102 36 1)      //29
	(108 36 1)      //30
	(210 36 1)      //31
	(104.6464 38.6464 1)      //32
	(105.3536 38.6464 1)      //33
	(104.6464 39.3536 1)      //34
	(105.3536 39.3536 1)      //35
	(0 42 1)      //36
	(102 42 1)      //37
	(108 42 1)      //38
	(210 42 1)      //39
	(104.6464 44.6464 1)      //40
	(105.3536 44.6464 1)      //41
	(104.6464 45.3536 1)      //42
	(105.3536 45.3536 1)      //43
	(0 48 1)      //44
	(102 48 1)      //45
	(108 48 1)      //46
	(210 48 1)      //47
	(104.6464 50.6464 1)      //48
	(105.3536 50.6464 1)      //49
	(104.6464 51.3536 1)      //50
	(105.3536 51.3536 1)      //51
	(0 54 1)      //52
	(102 54 1)      //53
	(108 54 1)      //54
	(210 54 1)      //55
	(0 90 1)      //56
	(102 90 1)      //57
	(108 90 1)      //58
	(210 90 1)      //59
	(0 0 101)      //60
	(102 0 101)      //61
	(108 0 101)      //62
	(210 0 101)      //63
	(0 36 101)      //64
	(102 36 101)      //65
	(108 36 101)      //66
	(210 36 101)      //67
	(104.6464 38.6464 101)      //68
	(105.3536 38.6464 101)      //69
	(104.8232 38.8232 101)      //70
	(105.1768 38.8232 101)      //71
	(104.8232 39.1768 101)      //72
	(105.1768 39.1768 101)      //73
	(104.6464 39.3536 101)      //74
	(105.3536 39.3536 101)      //75
	(0 42 101)      //76
	(102 42 101)      //77
	(108 42 101)      //78
	(210 42 101)      //79
	(104.6464 44.6464 101)      //80
	(105.3536 44.6464 101)      //81
	(104.8232 44.8232 101)      //82
	(105.1768 44.8232 101)      //83
	(104.8232 45.1768 101)      //84
	(105.1768 45.1768 101)      //85
	(104.6464 45.3536 101)      //86
	(105.3536 45.3536 101)      //87
	(0 48 101)      //88
	(102 48 101)      //89
	(108 48 101)      //90
	(210 48 101)      //91
	(104.6464 50.6464 101)      //92
	(105.3536 50.6464 101)      //93
	(104.8232 50.8232 101)      //94
	(105.1768 50.8232 101)      //95
	(104.8232 51.1768 101)      //96
	(105.1768 51.1768 101)      //97
	(104.6464 51.3536 101)      //98
	(105.3536 51.3536 101)      //99
	(0 54 101)      //100
	(102 54 101)      //101
	(108 54 101)      //102
	(210 54 101)      //103
	(0 90 101)      //104
	(102 90 101)      //105
	(108 90 101)      //106
	(210 90 101)      //107
	(0 0 201)      //108
	(102 0 201)      //109
	(108 0 201)      //110
	(210 0 201)      //111
	(0 36 201)      //112
	(102 36 201)      //113
	(108 36 201)      //114
	(210 36 201)      //115
	(104.6464 38.6464 201)      //116
	(105.3536 38.6464 201)      //117
	(104.8232 38.8232 201)      //118
	(105.1768 38.8232 201)      //119
	(104.8232 39.1768 201)      //120
	(105.1768 39.1768 201)      //121
	(104.6464 39.3536 201)      //122
	(105.3536 39.3536 201)      //123
	(0 42 201)      //124
	(102 42 201)      //125
	(108 42 201)      //126
	(210 42 201)      //127
	(104.6464 44.6464 201)      //128
	(105.3536 44.6464 201)      //129
	(104.8232 44.8232 201)      //130
	(105.1768 44.8232 201)      //131
	(104.8232 45.1768 201)      //132
	(105.1768 45.1768 201)      //133
	(104.6464 45.3536 201)      //134
	(105.3536 45.3536 201)      //135
	(0 48 201)      //136
	(102 48 201)      //137
	(108 48 201)      //138
	(210 48 201)      //139
	(104.6464 50.6464 201)      //140
	(105.3536 50.6464 201)      //141
	(104.8232 50.8232 201)      //142
	(105.1768 50.8232 201)      //143
	(104.8232 51.1768 201)      //144
	(105.1768 51.1768 201)      //145
	(104.6464 51.3536 201)      //146
	(105.3536 51.3536 201)      //147
	(0 54 201)      //148
	(102 54 201)      //149
	(108 54 201)      //150
	(210 54 201)      //151
	(0 90 201)      //152
	(102 90 201)      //153
	(108 90 201)      //154
	(210 90 201)      //155

);

blocks
(
	hex (0 1 5 4 24 25 29 28) (15 5 1) simpleGrading (0.05 0.05 1)
	hex (4 5 9 8 28 29 37 36) (15 5 1) simpleGrading (0.05 1 1)
	hex (8 9 13 12 36 37 45 44) (15 5 1) simpleGrading (0.05 1 1)
	hex (12 13 17 16 44 45 53 52) (15 5 1) simpleGrading (0.05 1 1)
	hex (16 17 21 20 52 53 57 56) (15 5 1) simpleGrading (0.05 20 1)

	hex (2 3 7 6 26 27 31 30) (15 5 1) simpleGrading (20 0.05 1)
	hex (6 7 11 10 30 31 39 38) (15 5 1) simpleGrading (20 1 1)
	hex (10 11 15 14 38 39 47 46) (15 5 1) simpleGrading (20 1 1)
	hex (14 15 19 18 46 47 55 54) (15 5 1) simpleGrading (20 1 1)
	hex (18 19 23 22 54 55 59 58) (15 5 1) simpleGrading (20 20 1)

	hex (1 2 6 5 25 26 30 29) (5 5 1) simpleGrading (1 0.05 1)
	hex (17 18 22 21 53 54 58 57) (5 5 1) simpleGrading (1 20 1)

	hex (24 25 29 28 60 61 65 64) (15 5 40) simpleGrading (0.05 0.05 1)
	hex (28 29 37 36 64 65 77 76) (15 5 40) simpleGrading (0.05 1 1)
	hex (36 37 45 44 76 77 89 88) (15 5 40) simpleGrading (0.05 1 1)
	hex (44 45 53 52 88 89 101 100) (15 5 40) simpleGrading (0.05 1 1)
	hex (52 53 57 56 100 101 105 104) (15 5 40) simpleGrading (0.05 20 1)

	hex (26 27 31 30 62 63 67 66) (15 5 40) simpleGrading (20 0.05 1)
	hex (30 31 39 38 66 67 79 78) (15 5 40) simpleGrading (20 1 1)
	hex (38 39 47 46 78 79 91 90) (15 5 40) simpleGrading (20 1 1)
	hex (46 47 55 54 90 91 103 102) (15 5 40) simpleGrading (20 1 1)
	hex (54 55 59 58 102 103 107 106) (15 5 40) simpleGrading (20 20 1)

	hex (25 26 30 29 61 62 66 65) (5 5 40) simpleGrading (1 0.05 1)
	hex (53 54 58 57 101 102 106 105) (5 5 40) simpleGrading (1 20 1)

	hex (29 32 34 37 65 68 74 77) (5 5 40) simpleGrading (0.2 1 1)
	hex (30 33 32 29 66 69 68 65) (5 5 40) simpleGrading (0.2 1 1)
	hex (38 35 33 30 78 75 69 66) (5 5 40) simpleGrading (0.2 1 1)
	hex (37 34 35 38 77 74 75 78) (5 5 40) simpleGrading (0.2 1 1)
	hex (37 40 42 45 77 80 86 89) (5 5 40) simpleGrading (0.2 1 1)
	hex (38 41 40 37 78 81 80 77) (5 5 40) simpleGrading (0.2 1 1)
	hex (46 43 41 38 90 87 81 78) (5 5 40) simpleGrading (0.2 1 1)
	hex (45 42 43 46 89 86 87 90) (5 5 40) simpleGrading (0.2 1 1)
	hex (45 48 50 53 89 92 98 101) (5 5 40) simpleGrading (0.2 1 1)
	hex (46 49 48 45 90 93 92 89) (5 5 40) simpleGrading (0.2 1 1)
	hex (54 51 49 46 102 99 93 90) (5 5 40) simpleGrading (0.2 1 1)
	hex (53 50 51 54 101 98 99 102) (5 5 40) simpleGrading (0.2 1 1)

	hex (60 61 65 64 108 109 113 112) (15 5 40) simpleGrading (0.05 0.05 1)
	hex (64 65 77 76 112 113 125 124) (15 5 40) simpleGrading (0.05 1 1)
	hex (76 77 89 88 124 125 137 136) (15 5 40) simpleGrading (0.05 1 1)
	hex (88 89 101 100 136 137 149 148) (15 5 40) simpleGrading (0.05 1 1)
	hex (100 101 105 104 148 149 153 152) (15 5 40) simpleGrading (0.05 20 1)

	hex (62 63 67 66 110 111 115 114) (15 5 40) simpleGrading (20 0.05 1)
	hex (66 67 79 78 114 115 127 126) (15 5 40) simpleGrading (20 1 1)
	hex (78 79 91 90 126 127 139 138) (15 5 40) simpleGrading (20 1 1)
	hex (90 91 103 102 138 139 151 150) (15 5 40) simpleGrading (20 1 1)
	hex (102 103 107 106 150 151 155 154) (15 5 40) simpleGrading (20 20 1)

	hex (61 62 66 65 109 110 114 113) (5 5 40) simpleGrading (1 0.05 1)
	hex (101 102 106 105 149 150 154 153) (5 5 40) simpleGrading (1 20 1)

	hex (65 68 74 77 113 116 122 125) (5 5 40) simpleGrading (0.2 1 1)
	hex (66 69 68 65 114 117 116 113) (5 5 40) simpleGrading (0.2 1 1)
	hex (78 75 69 66 126 123 117 114) (5 5 40) simpleGrading (0.2 1 1)
	hex (77 74 75 78 125 122 123 126) (5 5 40) simpleGrading (0.2 1 1)
	hex (77 80 86 89 125 128 134 137) (5 5 40) simpleGrading (0.2 1 1)
	hex (78 81 80 77 126 129 128 125) (5 5 40) simpleGrading (0.2 1 1)
	hex (90 87 81 78 138 135 129 126) (5 5 40) simpleGrading (0.2 1 1)
	hex (89 86 87 90 137 134 135 138) (5 5 40) simpleGrading (0.2 1 1)
	hex (89 92 98 101 137 140 146 149) (5 5 40) simpleGrading (0.2 1 1)
	hex (90 93 92 89 138 141 140 137) (5 5 40) simpleGrading (0.2 1 1)
	hex (102 99 93 90 150 147 141 138) (5 5 40) simpleGrading (0.2 1 1)
	hex (101 98 99 102 149 146 147 150) (5 5 40) simpleGrading (0.2 1 1)

	hex (70 71 73 72 118 119 121 120) (5 5 40) simpleGrading (1 1 1)
	hex (68 70 72 74 116 118 120 122) (2 5 40) simpleGrading (1 1 1)
	hex (69 71 70 68 117 119 118 116) (2 5 40) simpleGrading (1 1 1)
	hex (75 73 71 69 123 121 119 117) (2 5 40) simpleGrading (1 1 1)
	hex (74 72 73 75 122 120 121 123) (2 5 40) simpleGrading (1 1 1)
	hex (82 83 85 84 130 131 133 132) (5 5 40) simpleGrading (1 1 1)
	hex (80 82 84 86 128 130 132 134) (2 5 40) simpleGrading (1 1 1)
	hex (81 83 82 80 129 131 130 128) (2 5 40) simpleGrading (1 1 1)
	hex (87 85 83 81 135 133 131 129) (2 5 40) simpleGrading (1 1 1)
	hex (86 84 85 87 134 132 133 135) (2 5 40) simpleGrading (1 1 1)
	hex (94 95 97 96 142 143 145 144) (5 5 40) simpleGrading (1 1 1)
	hex (92 94 96 98 140 142 144 146) (2 5 40) simpleGrading (1 1 1)
	hex (93 95 94 92 141 143 142 140) (2 5 40) simpleGrading (1 1 1)
	hex (99 97 95 93 147 145 143 141) (2 5 40) simpleGrading (1 1 1)
	hex (98 96 97 99 146 144 145 147) (2 5 40) simpleGrading (1 1 1)

);

edges
(
	arc 32 33 (105.0 38.5 1)
	arc 33 35 (105.5 39.0 1)
	arc 35 34 (105.0 39.5 1)
	arc 34 32 (104.5 39.0 1)
	arc 40 41 (105.0 44.5 1)
	arc 41 43 (105.5 45.0 1)
	arc 43 42 (105.0 45.5 1)
	arc 42 40 (104.5 45.0 1)
	arc 48 49 (105.0 50.5 1)
	arc 49 51 (105.5 51.0 1)
	arc 51 50 (105.0 51.5 1)
	arc 50 48 (104.5 51.0 1)

	arc 68 69 (105.0 38.5 101)
	arc 69 75 (105.5 39.0 101)
	arc 75 74 (105.0 39.5 101)
	arc 74 68 (104.5 39.0 101)
	arc 80 81 (105.0 44.5 101)
	arc 81 87 (105.5 45.0 101)
	arc 87 86 (105.0 45.5 101)
	arc 86 80 (104.5 45.0 101)
	arc 92 93 (105.0 50.5 101)
	arc 93 99 (105.5 51.0 101)
	arc 99 98 (105.0 51.5 101)
	arc 98 92 (104.5 51.0 101)

	arc 116 117 (105.0 38.5 201)
	arc 117 123 (105.5 39.0 201)
	arc 123 122 (105.0 39.5 201)
	arc 122 116 (104.5 39.0 201)
	arc 128 129 (105.0 44.5 201)
	arc 129 135 (105.5 45.0 201)
	arc 135 134 (105.0 45.5 201)
	arc 134 128 (104.5 45.0 201)
	arc 140 141 (105.0 50.5 201)
	arc 141 147 (105.5 51.0 201)
	arc 147 146 (105.0 51.5 201)
	arc 146 140 (104.5 51.0 201)
);

patches
(
	patch bottom
	(
		(4 5 1 0)
		(5 6 2 1)
		(6 7 3 2)
		(8 9 5 4)
		(10 11 7 6)
		(12 13 9 8)
		(14 15 11 10)
		(16 17 13 12)
		(18 19 15 14)
		(20 21 17 16)
		(21 22 18 17)
		(22 23 19 18)
	)

	patch top
	(
		(108 109 113 112)
		(112 113 125 124)
		(124 125 137 136)
		(136 137 149 148)
		(148 149 153 152)
		(110 111 115 114)
		(114 115 127 126)
		(126 127 139 138)
		(138 139 151 150)
		(150 151 155 154)
		(109 110 114 113)
		(149 150 154 153)
		(113 116 122 125)
		(114 117 116 113)
		(126 123 117 114)
		(125 122 123 126)
		(125 128 134 137)
		(126 129 128 125)
		(138 135 129 126)
		(137 134 135 138)
		(137 140 146 149)
		(138 141 140 137)
		(150 147 141 138)
		(149 146 147 150)
		(118 119 121 120)
		(116 118 120 122)
		(117 119 118 116)
		(123 121 119 117)
		(122 120 121 123)
		(130 131 133 132)
		(128 130 132 134)
		(129 131 130 128)
		(135 133 131 129)
		(134 132 133 135)
		(142 143 145 144)
		(140 142 144 146)
		(141 143 142 140)
		(147 145 143 141)
		(146 144 145 147)
	)

	patch inlet
	(
		(24 28 4 0)
		(60 64 28 24)
		(108 112 64 60)
		(28 36 8 4)
		(64 76 36 28)
		(112 124 76 64)
		(36 44 12 8)
		(76 88 44 36)
		(124 136 88 76)
		(44 52 16 12)
		(88 100 52 44)
		(136 148 100 88)
		(52 56 20 16)
		(100 104 56 52)
		(148 152 104 100)
	)

	patch outlet
	(
		(3 7 31 27)
		(27 31 67 63)
		(63 67 115 111)
		(7 11 39 31)
		(31 39 79 67)
		(67 79 127 115)
		(11 15 47 39)
		(39 47 91 79)
		(79 91 139 127)
		(15 19 55 47)
		(47 55 103 91)
		(91 103 151 139)
		(19 23 59 55)
		(55 59 107 103)
		(103 107 155 151)
	)

	patch bristle
	(
		(9 37 29 5)
		(10 38 30 6)
		(13 45 37 9)
		(14 46 38 10)
		(17 53 45 13)
		(18 54 46 14)
		(5 29 30 6)
		(18 54 53 17)
		(37 34 32 29)
		(29 32 33 30)
		(30 33 35 38)
		(38 35 34 37)
		(45 42 40 37)
		(37 40 41 38)
		(38 41 43 46)
		(46 43 42 45)
		(53 50 48 45)
		(45 48 49 46)
		(46 49 51 54)
		(54 51 50 53)
		(72 73 71 70)
		(74 72 70 68)
		(68 70 71 69)
		(69 71 73 75)
		(75 73 72 74)
		(34 74 68 32)
		(32 68 69 33)
		(33 69 75 35)
		(35 75 74 34)
		(84 85 83 82)
		(86 84 82 80)
		(80 82 83 81)
		(81 83 85 87)
		(87 85 84 86)
		(42 86 80 40)
		(40 80 81 41)
		(41 81 87 43)
		(43 87 86 42)
		(96 97 95 94)
		(98 96 94 92)
		(92 94 95 93)
		(93 95 97 99)
		(99 97 96 98)
		(50 98 92 48)
		(48 92 93 49)
		(49 93 99 51)
		(51 99 98 50)
	)

	patch frontAndBackPlanes
	(
		(0 1 25 24)
		(24 25 61 60)
		(60 61 109 108)
		(20 56 57 21)
		(56 104 105 57)
		(104 152 153 105)
		(1 2 26 25)
		(25 26 62 61)
		(61 62 110 109)
		(21 57 58 22)
		(57 105 106 58)
		(105 153 154 106)
		(2 3 27 26)
		(26 27 63 62)
		(62 63 111 110)
		(22 58 59 23)
		(58 106 107 59)
		(106 154 155 107)
	)
);

mergePatchPairs
(
);


// ************************************************************************* //

