/*--------------------------------*- C++ -*----------------------------------*\
| =========                 |                                                 |
| \      /  F ield         | foam-extend: Open Source CFD                    |
|  \    /   O peration     | Version:     4.0                                |
|   \  /    A nd           | Web:         http://www.foam-extend.org         |
|    \/     M anipulation  |                                                 |
\*---------------------------------------------------------------------------*/
FoamFile
{
    version     2.0;
    format      ascii;
    class       dictionary;
    object      blockMeshDict;
}
// * * * * * * * * * * * * * * * * * * * * * * * * * * * * * * * * * * * * * //

convertToMeters 0.001;
vertices
(
	(0 0 0)      //0
	(102 0 0)      //1
	(108 0 0)      //2
	(210 0 0)      //3
	(0 84 0)      //4
	(102 84 0)      //5
	(108 84 0)      //6
	(210 84 0)      //7
	(0 90 0)      //8
	(102 90 0)      //9
	(108 90 0)      //10
	(210 90 0)      //11
	(0 96 0)      //12
	(102 96 0)      //13
	(108 96 0)      //14
	(210 96 0)      //15
	(0 102 0)      //16
	(102 102 0)      //17
	(108 102 0)      //18
	(210 102 0)      //19
	(0 108 0)      //20
	(102 108 0)      //21
	(108 108 0)      //22
	(210 108 0)      //23
	(0 114 0)      //24
	(102 114 0)      //25
	(108 114 0)      //26
	(210 114 0)      //27
	(0 120 0)      //28
	(102 120 0)      //29
	(108 120 0)      //30
	(210 120 0)      //31
	(0 126 0)      //32
	(102 126 0)      //33
	(108 126 0)      //34
	(210 126 0)      //35
	(0 210 0)      //36
	(102 210 0)      //37
	(108 210 0)      //38
	(210 210 0)      //39
	(0 0 1)      //40
	(102 0 1)      //41
	(108 0 1)      //42
	(210 0 1)      //43
	(0 84 1)      //44
	(102 84 1)      //45
	(108 84 1)      //46
	(210 84 1)      //47
	(104.6464 86.6464 1)      //48
	(105.3536 86.6464 1)      //49
	(104.6464 87.3536 1)      //50
	(105.3536 87.3536 1)      //51
	(0 90 1)      //52
	(102 90 1)      //53
	(108 90 1)      //54
	(210 90 1)      //55
	(104.6464 92.6464 1)      //56
	(105.3536 92.6464 1)      //57
	(104.6464 93.3536 1)      //58
	(105.3536 93.3536 1)      //59
	(0 96 1)      //60
	(102 96 1)      //61
	(108 96 1)      //62
	(210 96 1)      //63
	(104.6464 98.6464 1)      //64
	(105.3536 98.6464 1)      //65
	(104.6464 99.3536 1)      //66
	(105.3536 99.3536 1)      //67
	(0 102 1)      //68
	(102 102 1)      //69
	(108 102 1)      //70
	(210 102 1)      //71
	(104.6464 104.6464 1)      //72
	(105.3536 104.6464 1)      //73
	(104.6464 105.3536 1)      //74
	(105.3536 105.3536 1)      //75
	(0 108 1)      //76
	(102 108 1)      //77
	(108 108 1)      //78
	(210 108 1)      //79
	(104.6464 110.6464 1)      //80
	(105.3536 110.6464 1)      //81
	(104.6464 111.3536 1)      //82
	(105.3536 111.3536 1)      //83
	(0 114 1)      //84
	(102 114 1)      //85
	(108 114 1)      //86
	(210 114 1)      //87
	(104.6464 116.6464 1)      //88
	(105.3536 116.6464 1)      //89
	(104.6464 117.3536 1)      //90
	(105.3536 117.3536 1)      //91
	(0 120 1)      //92
	(102 120 1)      //93
	(108 120 1)      //94
	(210 120 1)      //95
	(104.6464 122.6464 1)      //96
	(105.3536 122.6464 1)      //97
	(104.6464 123.3536 1)      //98
	(105.3536 123.3536 1)      //99
	(0 126 1)      //100
	(102 126 1)      //101
	(108 126 1)      //102
	(210 126 1)      //103
	(0 210 1)      //104
	(102 210 1)      //105
	(108 210 1)      //106
	(210 210 1)      //107
	(0 0 101)      //108
	(102 0 101)      //109
	(108 0 101)      //110
	(210 0 101)      //111
	(0 84 101)      //112
	(102 84 101)      //113
	(108 84 101)      //114
	(210 84 101)      //115
	(104.6464 86.6464 101)      //116
	(105.3536 86.6464 101)      //117
	(104.8232 86.8232 101)      //118
	(105.1768 86.8232 101)      //119
	(104.8232 87.1768 101)      //120
	(105.1768 87.1768 101)      //121
	(104.6464 87.3536 101)      //122
	(105.3536 87.3536 101)      //123
	(0 90 101)      //124
	(102 90 101)      //125
	(108 90 101)      //126
	(210 90 101)      //127
	(104.6464 92.6464 101)      //128
	(105.3536 92.6464 101)      //129
	(104.8232 92.8232 101)      //130
	(105.1768 92.8232 101)      //131
	(104.8232 93.1768 101)      //132
	(105.1768 93.1768 101)      //133
	(104.6464 93.3536 101)      //134
	(105.3536 93.3536 101)      //135
	(0 96 101)      //136
	(102 96 101)      //137
	(108 96 101)      //138
	(210 96 101)      //139
	(104.6464 98.6464 101)      //140
	(105.3536 98.6464 101)      //141
	(104.8232 98.8232 101)      //142
	(105.1768 98.8232 101)      //143
	(104.8232 99.1768 101)      //144
	(105.1768 99.1768 101)      //145
	(104.6464 99.3536 101)      //146
	(105.3536 99.3536 101)      //147
	(0 102 101)      //148
	(102 102 101)      //149
	(108 102 101)      //150
	(210 102 101)      //151
	(104.6464 104.6464 101)      //152
	(105.3536 104.6464 101)      //153
	(104.8232 104.8232 101)      //154
	(105.1768 104.8232 101)      //155
	(104.8232 105.1768 101)      //156
	(105.1768 105.1768 101)      //157
	(104.6464 105.3536 101)      //158
	(105.3536 105.3536 101)      //159
	(0 108 101)      //160
	(102 108 101)      //161
	(108 108 101)      //162
	(210 108 101)      //163
	(104.6464 110.6464 101)      //164
	(105.3536 110.6464 101)      //165
	(104.8232 110.8232 101)      //166
	(105.1768 110.8232 101)      //167
	(104.8232 111.1768 101)      //168
	(105.1768 111.1768 101)      //169
	(104.6464 111.3536 101)      //170
	(105.3536 111.3536 101)      //171
	(0 114 101)      //172
	(102 114 101)      //173
	(108 114 101)      //174
	(210 114 101)      //175
	(104.6464 116.6464 101)      //176
	(105.3536 116.6464 101)      //177
	(104.8232 116.8232 101)      //178
	(105.1768 116.8232 101)      //179
	(104.8232 117.1768 101)      //180
	(105.1768 117.1768 101)      //181
	(104.6464 117.3536 101)      //182
	(105.3536 117.3536 101)      //183
	(0 120 101)      //184
	(102 120 101)      //185
	(108 120 101)      //186
	(210 120 101)      //187
	(104.6464 122.6464 101)      //188
	(105.3536 122.6464 101)      //189
	(104.8232 122.8232 101)      //190
	(105.1768 122.8232 101)      //191
	(104.8232 123.1768 101)      //192
	(105.1768 123.1768 101)      //193
	(104.6464 123.3536 101)      //194
	(105.3536 123.3536 101)      //195
	(0 126 101)      //196
	(102 126 101)      //197
	(108 126 101)      //198
	(210 126 101)      //199
	(0 210 101)      //200
	(102 210 101)      //201
	(108 210 101)      //202
	(210 210 101)      //203
	(0 0 201)      //204
	(102 0 201)      //205
	(108 0 201)      //206
	(210 0 201)      //207
	(0 84 201)      //208
	(102 84 201)      //209
	(108 84 201)      //210
	(210 84 201)      //211
	(104.6464 86.6464 201)      //212
	(105.3536 86.6464 201)      //213
	(104.8232 86.8232 201)      //214
	(105.1768 86.8232 201)      //215
	(104.8232 87.1768 201)      //216
	(105.1768 87.1768 201)      //217
	(104.6464 87.3536 201)      //218
	(105.3536 87.3536 201)      //219
	(0 90 201)      //220
	(102 90 201)      //221
	(108 90 201)      //222
	(210 90 201)      //223
	(104.6464 92.6464 201)      //224
	(105.3536 92.6464 201)      //225
	(104.8232 92.8232 201)      //226
	(105.1768 92.8232 201)      //227
	(104.8232 93.1768 201)      //228
	(105.1768 93.1768 201)      //229
	(104.6464 93.3536 201)      //230
	(105.3536 93.3536 201)      //231
	(0 96 201)      //232
	(102 96 201)      //233
	(108 96 201)      //234
	(210 96 201)      //235
	(104.6464 98.6464 201)      //236
	(105.3536 98.6464 201)      //237
	(104.8232 98.8232 201)      //238
	(105.1768 98.8232 201)      //239
	(104.8232 99.1768 201)      //240
	(105.1768 99.1768 201)      //241
	(104.6464 99.3536 201)      //242
	(105.3536 99.3536 201)      //243
	(0 102 201)      //244
	(102 102 201)      //245
	(108 102 201)      //246
	(210 102 201)      //247
	(104.6464 104.6464 201)      //248
	(105.3536 104.6464 201)      //249
	(104.8232 104.8232 201)      //250
	(105.1768 104.8232 201)      //251
	(104.8232 105.1768 201)      //252
	(105.1768 105.1768 201)      //253
	(104.6464 105.3536 201)      //254
	(105.3536 105.3536 201)      //255
	(0 108 201)      //256
	(102 108 201)      //257
	(108 108 201)      //258
	(210 108 201)      //259
	(104.6464 110.6464 201)      //260
	(105.3536 110.6464 201)      //261
	(104.8232 110.8232 201)      //262
	(105.1768 110.8232 201)      //263
	(104.8232 111.1768 201)      //264
	(105.1768 111.1768 201)      //265
	(104.6464 111.3536 201)      //266
	(105.3536 111.3536 201)      //267
	(0 114 201)      //268
	(102 114 201)      //269
	(108 114 201)      //270
	(210 114 201)      //271
	(104.6464 116.6464 201)      //272
	(105.3536 116.6464 201)      //273
	(104.8232 116.8232 201)      //274
	(105.1768 116.8232 201)      //275
	(104.8232 117.1768 201)      //276
	(105.1768 117.1768 201)      //277
	(104.6464 117.3536 201)      //278
	(105.3536 117.3536 201)      //279
	(0 120 201)      //280
	(102 120 201)      //281
	(108 120 201)      //282
	(210 120 201)      //283
	(104.6464 122.6464 201)      //284
	(105.3536 122.6464 201)      //285
	(104.8232 122.8232 201)      //286
	(105.1768 122.8232 201)      //287
	(104.8232 123.1768 201)      //288
	(105.1768 123.1768 201)      //289
	(104.6464 123.3536 201)      //290
	(105.3536 123.3536 201)      //291
	(0 126 201)      //292
	(102 126 201)      //293
	(108 126 201)      //294
	(210 126 201)      //295
	(0 210 201)      //296
	(102 210 201)      //297
	(108 210 201)      //298
	(210 210 201)      //299

);

blocks
(
	hex (0 1 5 4 40 41 45 44) (15 5 1) simpleGrading (0.05 0.05 1)
	hex (4 5 9 8 44 45 53 52) (15 5 1) simpleGrading (0.05 1 1)
	hex (8 9 13 12 52 53 61 60) (15 5 1) simpleGrading (0.05 1 1)
	hex (12 13 17 16 60 61 69 68) (15 5 1) simpleGrading (0.05 1 1)
	hex (16 17 21 20 68 69 77 76) (15 5 1) simpleGrading (0.05 1 1)
	hex (20 21 25 24 76 77 85 84) (15 5 1) simpleGrading (0.05 1 1)
	hex (24 25 29 28 84 85 93 92) (15 5 1) simpleGrading (0.05 1 1)
	hex (28 29 33 32 92 93 101 100) (15 5 1) simpleGrading (0.05 1 1)
	hex (32 33 37 36 100 101 105 104) (15 5 1) simpleGrading (0.05 20 1)

	hex (2 3 7 6 42 43 47 46) (15 5 1) simpleGrading (20 0.05 1)
	hex (6 7 11 10 46 47 55 54) (15 5 1) simpleGrading (20 1 1)
	hex (10 11 15 14 54 55 63 62) (15 5 1) simpleGrading (20 1 1)
	hex (14 15 19 18 62 63 71 70) (15 5 1) simpleGrading (20 1 1)
	hex (18 19 23 22 70 71 79 78) (15 5 1) simpleGrading (20 1 1)
	hex (22 23 27 26 78 79 87 86) (15 5 1) simpleGrading (20 1 1)
	hex (26 27 31 30 86 87 95 94) (15 5 1) simpleGrading (20 1 1)
	hex (30 31 35 34 94 95 103 102) (15 5 1) simpleGrading (20 1 1)
	hex (34 35 39 38 102 103 107 106) (15 5 1) simpleGrading (20 20 1)

	hex (1 2 6 5 41 42 46 45) (5 5 1) simpleGrading (1 0.05 1)
	hex (33 34 38 37 101 102 106 105) (5 5 1) simpleGrading (1 20 1)

	hex (40 41 45 44 108 109 113 112) (15 5 40) simpleGrading (0.05 0.05 1)
	hex (44 45 53 52 112 113 125 124) (15 5 40) simpleGrading (0.05 1 1)
	hex (52 53 61 60 124 125 137 136) (15 5 40) simpleGrading (0.05 1 1)
	hex (60 61 69 68 136 137 149 148) (15 5 40) simpleGrading (0.05 1 1)
	hex (68 69 77 76 148 149 161 160) (15 5 40) simpleGrading (0.05 1 1)
	hex (76 77 85 84 160 161 173 172) (15 5 40) simpleGrading (0.05 1 1)
	hex (84 85 93 92 172 173 185 184) (15 5 40) simpleGrading (0.05 1 1)
	hex (92 93 101 100 184 185 197 196) (15 5 40) simpleGrading (0.05 1 1)
	hex (100 101 105 104 196 197 201 200) (15 5 40) simpleGrading (0.05 20 1)

	hex (42 43 47 46 110 111 115 114) (15 5 40) simpleGrading (20 0.05 1)
	hex (46 47 55 54 114 115 127 126) (15 5 40) simpleGrading (20 1 1)
	hex (54 55 63 62 126 127 139 138) (15 5 40) simpleGrading (20 1 1)
	hex (62 63 71 70 138 139 151 150) (15 5 40) simpleGrading (20 1 1)
	hex (70 71 79 78 150 151 163 162) (15 5 40) simpleGrading (20 1 1)
	hex (78 79 87 86 162 163 175 174) (15 5 40) simpleGrading (20 1 1)
	hex (86 87 95 94 174 175 187 186) (15 5 40) simpleGrading (20 1 1)
	hex (94 95 103 102 186 187 199 198) (15 5 40) simpleGrading (20 1 1)
	hex (102 103 107 106 198 199 203 202) (15 5 40) simpleGrading (20 20 1)

	hex (41 42 46 45 109 110 114 113) (5 5 40) simpleGrading (1 0.05 1)
	hex (101 102 106 105 197 198 202 201) (5 5 40) simpleGrading (1 20 1)

	hex (45 48 50 53 113 116 122 125) (5 5 40) simpleGrading (0.2 1 1)
	hex (46 49 48 45 114 117 116 113) (5 5 40) simpleGrading (0.2 1 1)
	hex (54 51 49 46 126 123 117 114) (5 5 40) simpleGrading (0.2 1 1)
	hex (53 50 51 54 125 122 123 126) (5 5 40) simpleGrading (0.2 1 1)
	hex (53 56 58 61 125 128 134 137) (5 5 40) simpleGrading (0.2 1 1)
	hex (54 57 56 53 126 129 128 125) (5 5 40) simpleGrading (0.2 1 1)
	hex (62 59 57 54 138 135 129 126) (5 5 40) simpleGrading (0.2 1 1)
	hex (61 58 59 62 137 134 135 138) (5 5 40) simpleGrading (0.2 1 1)
	hex (61 64 66 69 137 140 146 149) (5 5 40) simpleGrading (0.2 1 1)
	hex (62 65 64 61 138 141 140 137) (5 5 40) simpleGrading (0.2 1 1)
	hex (70 67 65 62 150 147 141 138) (5 5 40) simpleGrading (0.2 1 1)
	hex (69 66 67 70 149 146 147 150) (5 5 40) simpleGrading (0.2 1 1)
	hex (69 72 74 77 149 152 158 161) (5 5 40) simpleGrading (0.2 1 1)
	hex (70 73 72 69 150 153 152 149) (5 5 40) simpleGrading (0.2 1 1)
	hex (78 75 73 70 162 159 153 150) (5 5 40) simpleGrading (0.2 1 1)
	hex (77 74 75 78 161 158 159 162) (5 5 40) simpleGrading (0.2 1 1)
	hex (77 80 82 85 161 164 170 173) (5 5 40) simpleGrading (0.2 1 1)
	hex (78 81 80 77 162 165 164 161) (5 5 40) simpleGrading (0.2 1 1)
	hex (86 83 81 78 174 171 165 162) (5 5 40) simpleGrading (0.2 1 1)
	hex (85 82 83 86 173 170 171 174) (5 5 40) simpleGrading (0.2 1 1)
	hex (85 88 90 93 173 176 182 185) (5 5 40) simpleGrading (0.2 1 1)
	hex (86 89 88 85 174 177 176 173) (5 5 40) simpleGrading (0.2 1 1)
	hex (94 91 89 86 186 183 177 174) (5 5 40) simpleGrading (0.2 1 1)
	hex (93 90 91 94 185 182 183 186) (5 5 40) simpleGrading (0.2 1 1)
	hex (93 96 98 101 185 188 194 197) (5 5 40) simpleGrading (0.2 1 1)
	hex (94 97 96 93 186 189 188 185) (5 5 40) simpleGrading (0.2 1 1)
	hex (102 99 97 94 198 195 189 186) (5 5 40) simpleGrading (0.2 1 1)
	hex (101 98 99 102 197 194 195 198) (5 5 40) simpleGrading (0.2 1 1)

	hex (108 109 113 112 204 205 209 208) (15 5 40) simpleGrading (0.05 0.05 1)
	hex (112 113 125 124 208 209 221 220) (15 5 40) simpleGrading (0.05 1 1)
	hex (124 125 137 136 220 221 233 232) (15 5 40) simpleGrading (0.05 1 1)
	hex (136 137 149 148 232 233 245 244) (15 5 40) simpleGrading (0.05 1 1)
	hex (148 149 161 160 244 245 257 256) (15 5 40) simpleGrading (0.05 1 1)
	hex (160 161 173 172 256 257 269 268) (15 5 40) simpleGrading (0.05 1 1)
	hex (172 173 185 184 268 269 281 280) (15 5 40) simpleGrading (0.05 1 1)
	hex (184 185 197 196 280 281 293 292) (15 5 40) simpleGrading (0.05 1 1)
	hex (196 197 201 200 292 293 297 296) (15 5 40) simpleGrading (0.05 20 1)

	hex (110 111 115 114 206 207 211 210) (15 5 40) simpleGrading (20 0.05 1)
	hex (114 115 127 126 210 211 223 222) (15 5 40) simpleGrading (20 1 1)
	hex (126 127 139 138 222 223 235 234) (15 5 40) simpleGrading (20 1 1)
	hex (138 139 151 150 234 235 247 246) (15 5 40) simpleGrading (20 1 1)
	hex (150 151 163 162 246 247 259 258) (15 5 40) simpleGrading (20 1 1)
	hex (162 163 175 174 258 259 271 270) (15 5 40) simpleGrading (20 1 1)
	hex (174 175 187 186 270 271 283 282) (15 5 40) simpleGrading (20 1 1)
	hex (186 187 199 198 282 283 295 294) (15 5 40) simpleGrading (20 1 1)
	hex (198 199 203 202 294 295 299 298) (15 5 40) simpleGrading (20 20 1)

	hex (109 110 114 113 205 206 210 209) (5 5 40) simpleGrading (1 0.05 1)
	hex (197 198 202 201 293 294 298 297) (5 5 40) simpleGrading (1 20 1)

	hex (113 116 122 125 209 212 218 221) (5 5 40) simpleGrading (0.2 1 1)
	hex (114 117 116 113 210 213 212 209) (5 5 40) simpleGrading (0.2 1 1)
	hex (126 123 117 114 222 219 213 210) (5 5 40) simpleGrading (0.2 1 1)
	hex (125 122 123 126 221 218 219 222) (5 5 40) simpleGrading (0.2 1 1)
	hex (125 128 134 137 221 224 230 233) (5 5 40) simpleGrading (0.2 1 1)
	hex (126 129 128 125 222 225 224 221) (5 5 40) simpleGrading (0.2 1 1)
	hex (138 135 129 126 234 231 225 222) (5 5 40) simpleGrading (0.2 1 1)
	hex (137 134 135 138 233 230 231 234) (5 5 40) simpleGrading (0.2 1 1)
	hex (137 140 146 149 233 236 242 245) (5 5 40) simpleGrading (0.2 1 1)
	hex (138 141 140 137 234 237 236 233) (5 5 40) simpleGrading (0.2 1 1)
	hex (150 147 141 138 246 243 237 234) (5 5 40) simpleGrading (0.2 1 1)
	hex (149 146 147 150 245 242 243 246) (5 5 40) simpleGrading (0.2 1 1)
	hex (149 152 158 161 245 248 254 257) (5 5 40) simpleGrading (0.2 1 1)
	hex (150 153 152 149 246 249 248 245) (5 5 40) simpleGrading (0.2 1 1)
	hex (162 159 153 150 258 255 249 246) (5 5 40) simpleGrading (0.2 1 1)
	hex (161 158 159 162 257 254 255 258) (5 5 40) simpleGrading (0.2 1 1)
	hex (161 164 170 173 257 260 266 269) (5 5 40) simpleGrading (0.2 1 1)
	hex (162 165 164 161 258 261 260 257) (5 5 40) simpleGrading (0.2 1 1)
	hex (174 171 165 162 270 267 261 258) (5 5 40) simpleGrading (0.2 1 1)
	hex (173 170 171 174 269 266 267 270) (5 5 40) simpleGrading (0.2 1 1)
	hex (173 176 182 185 269 272 278 281) (5 5 40) simpleGrading (0.2 1 1)
	hex (174 177 176 173 270 273 272 269) (5 5 40) simpleGrading (0.2 1 1)
	hex (186 183 177 174 282 279 273 270) (5 5 40) simpleGrading (0.2 1 1)
	hex (185 182 183 186 281 278 279 282) (5 5 40) simpleGrading (0.2 1 1)
	hex (185 188 194 197 281 284 290 293) (5 5 40) simpleGrading (0.2 1 1)
	hex (186 189 188 185 282 285 284 281) (5 5 40) simpleGrading (0.2 1 1)
	hex (198 195 189 186 294 291 285 282) (5 5 40) simpleGrading (0.2 1 1)
	hex (197 194 195 198 293 290 291 294) (5 5 40) simpleGrading (0.2 1 1)

	hex (118 119 121 120 214 215 217 216) (5 5 40) simpleGrading (1 1 1)
	hex (116 118 120 122 212 214 216 218) (2 5 40) simpleGrading (1 1 1)
	hex (117 119 118 116 213 215 214 212) (2 5 40) simpleGrading (1 1 1)
	hex (123 121 119 117 219 217 215 213) (2 5 40) simpleGrading (1 1 1)
	hex (122 120 121 123 218 216 217 219) (2 5 40) simpleGrading (1 1 1)
	hex (130 131 133 132 226 227 229 228) (5 5 40) simpleGrading (1 1 1)
	hex (128 130 132 134 224 226 228 230) (2 5 40) simpleGrading (1 1 1)
	hex (129 131 130 128 225 227 226 224) (2 5 40) simpleGrading (1 1 1)
	hex (135 133 131 129 231 229 227 225) (2 5 40) simpleGrading (1 1 1)
	hex (134 132 133 135 230 228 229 231) (2 5 40) simpleGrading (1 1 1)
	hex (142 143 145 144 238 239 241 240) (5 5 40) simpleGrading (1 1 1)
	hex (140 142 144 146 236 238 240 242) (2 5 40) simpleGrading (1 1 1)
	hex (141 143 142 140 237 239 238 236) (2 5 40) simpleGrading (1 1 1)
	hex (147 145 143 141 243 241 239 237) (2 5 40) simpleGrading (1 1 1)
	hex (146 144 145 147 242 240 241 243) (2 5 40) simpleGrading (1 1 1)
	hex (154 155 157 156 250 251 253 252) (5 5 40) simpleGrading (1 1 1)
	hex (152 154 156 158 248 250 252 254) (2 5 40) simpleGrading (1 1 1)
	hex (153 155 154 152 249 251 250 248) (2 5 40) simpleGrading (1 1 1)
	hex (159 157 155 153 255 253 251 249) (2 5 40) simpleGrading (1 1 1)
	hex (158 156 157 159 254 252 253 255) (2 5 40) simpleGrading (1 1 1)
	hex (166 167 169 168 262 263 265 264) (5 5 40) simpleGrading (1 1 1)
	hex (164 166 168 170 260 262 264 266) (2 5 40) simpleGrading (1 1 1)
	hex (165 167 166 164 261 263 262 260) (2 5 40) simpleGrading (1 1 1)
	hex (171 169 167 165 267 265 263 261) (2 5 40) simpleGrading (1 1 1)
	hex (170 168 169 171 266 264 265 267) (2 5 40) simpleGrading (1 1 1)
	hex (178 179 181 180 274 275 277 276) (5 5 40) simpleGrading (1 1 1)
	hex (176 178 180 182 272 274 276 278) (2 5 40) simpleGrading (1 1 1)
	hex (177 179 178 176 273 275 274 272) (2 5 40) simpleGrading (1 1 1)
	hex (183 181 179 177 279 277 275 273) (2 5 40) simpleGrading (1 1 1)
	hex (182 180 181 183 278 276 277 279) (2 5 40) simpleGrading (1 1 1)
	hex (190 191 193 192 286 287 289 288) (5 5 40) simpleGrading (1 1 1)
	hex (188 190 192 194 284 286 288 290) (2 5 40) simpleGrading (1 1 1)
	hex (189 191 190 188 285 287 286 284) (2 5 40) simpleGrading (1 1 1)
	hex (195 193 191 189 291 289 287 285) (2 5 40) simpleGrading (1 1 1)
	hex (194 192 193 195 290 288 289 291) (2 5 40) simpleGrading (1 1 1)

);

edges
(
	arc 48 49 (105.0 86.5 1)
	arc 49 51 (105.5 87.0 1)
	arc 51 50 (105.0 87.5 1)
	arc 50 48 (104.5 87.0 1)
	arc 56 57 (105.0 92.5 1)
	arc 57 59 (105.5 93.0 1)
	arc 59 58 (105.0 93.5 1)
	arc 58 56 (104.5 93.0 1)
	arc 64 65 (105.0 98.5 1)
	arc 65 67 (105.5 99.0 1)
	arc 67 66 (105.0 99.5 1)
	arc 66 64 (104.5 99.0 1)
	arc 72 73 (105.0 104.5 1)
	arc 73 75 (105.5 105.0 1)
	arc 75 74 (105.0 105.5 1)
	arc 74 72 (104.5 105.0 1)
	arc 80 81 (105.0 110.5 1)
	arc 81 83 (105.5 111.0 1)
	arc 83 82 (105.0 111.5 1)
	arc 82 80 (104.5 111.0 1)
	arc 88 89 (105.0 116.5 1)
	arc 89 91 (105.5 117.0 1)
	arc 91 90 (105.0 117.5 1)
	arc 90 88 (104.5 117.0 1)
	arc 96 97 (105.0 122.5 1)
	arc 97 99 (105.5 123.0 1)
	arc 99 98 (105.0 123.5 1)
	arc 98 96 (104.5 123.0 1)

	arc 116 117 (105.0 86.5 101)
	arc 117 123 (105.5 87.0 101)
	arc 123 122 (105.0 87.5 101)
	arc 122 116 (104.5 87.0 101)
	arc 128 129 (105.0 92.5 101)
	arc 129 135 (105.5 93.0 101)
	arc 135 134 (105.0 93.5 101)
	arc 134 128 (104.5 93.0 101)
	arc 140 141 (105.0 98.5 101)
	arc 141 147 (105.5 99.0 101)
	arc 147 146 (105.0 99.5 101)
	arc 146 140 (104.5 99.0 101)
	arc 152 153 (105.0 104.5 101)
	arc 153 159 (105.5 105.0 101)
	arc 159 158 (105.0 105.5 101)
	arc 158 152 (104.5 105.0 101)
	arc 164 165 (105.0 110.5 101)
	arc 165 171 (105.5 111.0 101)
	arc 171 170 (105.0 111.5 101)
	arc 170 164 (104.5 111.0 101)
	arc 176 177 (105.0 116.5 101)
	arc 177 183 (105.5 117.0 101)
	arc 183 182 (105.0 117.5 101)
	arc 182 176 (104.5 117.0 101)
	arc 188 189 (105.0 122.5 101)
	arc 189 195 (105.5 123.0 101)
	arc 195 194 (105.0 123.5 101)
	arc 194 188 (104.5 123.0 101)

	arc 212 213 (105.0 86.5 201)
	arc 213 219 (105.5 87.0 201)
	arc 219 218 (105.0 87.5 201)
	arc 218 212 (104.5 87.0 201)
	arc 224 225 (105.0 92.5 201)
	arc 225 231 (105.5 93.0 201)
	arc 231 230 (105.0 93.5 201)
	arc 230 224 (104.5 93.0 201)
	arc 236 237 (105.0 98.5 201)
	arc 237 243 (105.5 99.0 201)
	arc 243 242 (105.0 99.5 201)
	arc 242 236 (104.5 99.0 201)
	arc 248 249 (105.0 104.5 201)
	arc 249 255 (105.5 105.0 201)
	arc 255 254 (105.0 105.5 201)
	arc 254 248 (104.5 105.0 201)
	arc 260 261 (105.0 110.5 201)
	arc 261 267 (105.5 111.0 201)
	arc 267 266 (105.0 111.5 201)
	arc 266 260 (104.5 111.0 201)
	arc 272 273 (105.0 116.5 201)
	arc 273 279 (105.5 117.0 201)
	arc 279 278 (105.0 117.5 201)
	arc 278 272 (104.5 117.0 201)
	arc 284 285 (105.0 122.5 201)
	arc 285 291 (105.5 123.0 201)
	arc 291 290 (105.0 123.5 201)
	arc 290 284 (104.5 123.0 201)
);

patches
(
	patch bottom
	(
		(4 5 1 0)
		(5 6 2 1)
		(6 7 3 2)
		(8 9 5 4)
		(10 11 7 6)
		(12 13 9 8)
		(14 15 11 10)
		(16 17 13 12)
		(18 19 15 14)
		(20 21 17 16)
		(22 23 19 18)
		(24 25 21 20)
		(26 27 23 22)
		(28 29 25 24)
		(30 31 27 26)
		(32 33 29 28)
		(34 35 31 30)
		(36 37 33 32)
		(37 38 34 33)
		(38 39 35 34)
	)

	patch top
	(
		(204 205 209 208)
		(208 209 221 220)
		(220 221 233 232)
		(232 233 245 244)
		(244 245 257 256)
		(256 257 269 268)
		(268 269 281 280)
		(280 281 293 292)
		(292 293 297 296)
		(206 207 211 210)
		(210 211 223 222)
		(222 223 235 234)
		(234 235 247 246)
		(246 247 259 258)
		(258 259 271 270)
		(270 271 283 282)
		(282 283 295 294)
		(294 295 299 298)
		(205 206 210 209)
		(293 294 298 297)
		(209 212 218 221)
		(210 213 212 209)
		(222 219 213 210)
		(221 218 219 222)
		(221 224 230 233)
		(222 225 224 221)
		(234 231 225 222)
		(233 230 231 234)
		(233 236 242 245)
		(234 237 236 233)
		(246 243 237 234)
		(245 242 243 246)
		(245 248 254 257)
		(246 249 248 245)
		(258 255 249 246)
		(257 254 255 258)
		(257 260 266 269)
		(258 261 260 257)
		(270 267 261 258)
		(269 266 267 270)
		(269 272 278 281)
		(270 273 272 269)
		(282 279 273 270)
		(281 278 279 282)
		(281 284 290 293)
		(282 285 284 281)
		(294 291 285 282)
		(293 290 291 294)
		(214 215 217 216)
		(212 214 216 218)
		(213 215 214 212)
		(219 217 215 213)
		(218 216 217 219)
		(226 227 229 228)
		(224 226 228 230)
		(225 227 226 224)
		(231 229 227 225)
		(230 228 229 231)
		(238 239 241 240)
		(236 238 240 242)
		(237 239 238 236)
		(243 241 239 237)
		(242 240 241 243)
		(250 251 253 252)
		(248 250 252 254)
		(249 251 250 248)
		(255 253 251 249)
		(254 252 253 255)
		(262 263 265 264)
		(260 262 264 266)
		(261 263 262 260)
		(267 265 263 261)
		(266 264 265 267)
		(274 275 277 276)
		(272 274 276 278)
		(273 275 274 272)
		(279 277 275 273)
		(278 276 277 279)
		(286 287 289 288)
		(284 286 288 290)
		(285 287 286 284)
		(291 289 287 285)
		(290 288 289 291)
	)

	patch inlet
	(
		(40 44 4 0)
		(108 112 44 40)
		(204 208 112 108)
		(44 52 8 4)
		(112 124 52 44)
		(208 220 124 112)
		(52 60 12 8)
		(124 136 60 52)
		(220 232 136 124)
		(60 68 16 12)
		(136 148 68 60)
		(232 244 148 136)
		(68 76 20 16)
		(148 160 76 68)
		(244 256 160 148)
		(76 84 24 20)
		(160 172 84 76)
		(256 268 172 160)
		(84 92 28 24)
		(172 184 92 84)
		(268 280 184 172)
		(92 100 32 28)
		(184 196 100 92)
		(280 292 196 184)
		(100 104 36 32)
		(196 200 104 100)
		(292 296 200 196)
	)

	patch outlet
	(
		(3 7 47 43)
		(43 47 115 111)
		(111 115 211 207)
		(7 11 55 47)
		(47 55 127 115)
		(115 127 223 211)
		(11 15 63 55)
		(55 63 139 127)
		(127 139 235 223)
		(15 19 71 63)
		(63 71 151 139)
		(139 151 247 235)
		(19 23 79 71)
		(71 79 163 151)
		(151 163 259 247)
		(23 27 87 79)
		(79 87 175 163)
		(163 175 271 259)
		(27 31 95 87)
		(87 95 187 175)
		(175 187 283 271)
		(31 35 103 95)
		(95 103 199 187)
		(187 199 295 283)
		(35 39 107 103)
		(103 107 203 199)
		(199 203 299 295)
	)

	patch bristle
	(
		(9 53 45 5)
		(10 54 46 6)
		(13 61 53 9)
		(14 62 54 10)
		(17 69 61 13)
		(18 70 62 14)
		(21 77 69 17)
		(22 78 70 18)
		(25 85 77 21)
		(26 86 78 22)
		(29 93 85 25)
		(30 94 86 26)
		(33 101 93 29)
		(34 102 94 30)
		(5 45 46 6)
		(34 102 101 33)
		(53 50 48 45)
		(45 48 49 46)
		(46 49 51 54)
		(54 51 50 53)
		(61 58 56 53)
		(53 56 57 54)
		(54 57 59 62)
		(62 59 58 61)
		(69 66 64 61)
		(61 64 65 62)
		(62 65 67 70)
		(70 67 66 69)
		(77 74 72 69)
		(69 72 73 70)
		(70 73 75 78)
		(78 75 74 77)
		(85 82 80 77)
		(77 80 81 78)
		(78 81 83 86)
		(86 83 82 85)
		(93 90 88 85)
		(85 88 89 86)
		(86 89 91 94)
		(94 91 90 93)
		(101 98 96 93)
		(93 96 97 94)
		(94 97 99 102)
		(102 99 98 101)
		(120 121 119 118)
		(122 120 118 116)
		(116 118 119 117)
		(117 119 121 123)
		(123 121 120 122)
		(50 122 116 48)
		(48 116 117 49)
		(49 117 123 51)
		(51 123 122 50)
		(132 133 131 130)
		(134 132 130 128)
		(128 130 131 129)
		(129 131 133 135)
		(135 133 132 134)
		(58 134 128 56)
		(56 128 129 57)
		(57 129 135 59)
		(59 135 134 58)
		(144 145 143 142)
		(146 144 142 140)
		(140 142 143 141)
		(141 143 145 147)
		(147 145 144 146)
		(66 146 140 64)
		(64 140 141 65)
		(65 141 147 67)
		(67 147 146 66)
		(156 157 155 154)
		(158 156 154 152)
		(152 154 155 153)
		(153 155 157 159)
		(159 157 156 158)
		(74 158 152 72)
		(72 152 153 73)
		(73 153 159 75)
		(75 159 158 74)
		(168 169 167 166)
		(170 168 166 164)
		(164 166 167 165)
		(165 167 169 171)
		(171 169 168 170)
		(82 170 164 80)
		(80 164 165 81)
		(81 165 171 83)
		(83 171 170 82)
		(180 181 179 178)
		(182 180 178 176)
		(176 178 179 177)
		(177 179 181 183)
		(183 181 180 182)
		(90 182 176 88)
		(88 176 177 89)
		(89 177 183 91)
		(91 183 182 90)
		(192 193 191 190)
		(194 192 190 188)
		(188 190 191 189)
		(189 191 193 195)
		(195 193 192 194)
		(98 194 188 96)
		(96 188 189 97)
		(97 189 195 99)
		(99 195 194 98)
	)

	patch frontAndBackPlanes
	(
		(0 1 41 40)
		(40 41 109 108)
		(108 109 205 204)
		(36 104 105 37)
		(104 200 201 105)
		(200 296 297 201)
		(1 2 42 41)
		(41 42 110 109)
		(109 110 206 205)
		(37 105 106 38)
		(105 201 202 106)
		(201 297 298 202)
		(2 3 43 42)
		(42 43 111 110)
		(110 111 207 206)
		(38 106 107 39)
		(106 202 203 107)
		(202 298 299 203)
	)
);

mergePatchPairs
(
);


// ************************************************************************* //

