/*--------------------------------*- C++ -*----------------------------------*\
| =========                 |                                                 |
| \\      /  F ield         | foam-extend: Open Source CFD                    |
|  \\    /   O peration     | Version:     4.0                                |
|   \\  /    A nd           | Web:         http://www.foam-extend.org         |
|    \\/     M anipulation  |                                                 |
\*---------------------------------------------------------------------------*/
FoamFile
{
    version     2.0;
    format      ascii;
    class       polyBoundaryMesh;
    location    "constant/polyMesh";
    object      boundary;
}
// * * * * * * * * * * * * * * * * * * * * * * * * * * * * * * * * * * * * * //

6
(
    bottom
    {
        type            patch;
        nFaces          4000;
        startFace       684320;
    }
    top
    {
        type            patch;
        nFaces          5600;
        startFace       688320;
    }
    inlet
    {
        type            patch;
        nFaces          3180;
        startFace       693920;
    }
    outlet
    {
        type            patch;
        nFaces          3180;
        startFace       697100;
    }
    bristle
    {
        type            patch;
        nFaces          4800;
        startFace       700280;
    }
    frontAndBackPlanes
    {
        type            empty;
        nFaces          6360;
        startFace       705080;
    }
)


// ************************************************************************* //
