/*--------------------------------*- C++ -*----------------------------------*\
| =========                 |                                                 |
| \\      /  F ield         | foam-extend: Open Source CFD                    |
|  \\    /   O peration     | Version:     4.0                                |
|   \\  /    A nd           | Web:         http://www.foam-extend.org         |
|    \\/     M anipulation  |                                                 |
\*---------------------------------------------------------------------------*/
FoamFile
{
    version     2.0;
    format      ascii;
    class       polyBoundaryMesh;
    location    "constant/polyMesh";
    object      boundary;
}
// * * * * * * * * * * * * * * * * * * * * * * * * * * * * * * * * * * * * * //

6
(
    bottom
    {
        type            patch;
        nFaces          200;
        startFace       8110;
    }
    top
    {
        type            patch;
        nFaces          325;
        startFace       8310;
    }
    inlet
    {
        type            patch;
        nFaces          195;
        startFace       8635;
    }
    outlet
    {
        type            patch;
        nFaces          195;
        startFace       8830;
    }
    bristle
    {
        type            patch;
        nFaces          325;
        startFace       9025;
    }
    frontAndBackPlanes
    {
        type            patch;
        nFaces          390;
        startFace       9350;
    }
)


// ************************************************************************* //
