/*--------------------------------*- C++ -*----------------------------------*\
| =========                 |                                                 |
| \      /  F ield         | foam-extend: Open Source CFD                    |
|  \    /   O peration     | Version:     4.0                                |
|   \  /    A nd           | Web:         http://www.foam-extend.org         |
|    \/     M anipulation  |                                                 |
\*---------------------------------------------------------------------------*/
FoamFile
{
    version     2.0;
    format      ascii;
    class       dictionary;
    object      blockMeshDict;
}
// * * * * * * * * * * * * * * * * * * * * * * * * * * * * * * * * * * * * * //

convertToMeters 0.001;
vertices
(
	(-100 -100 0)      //0
	(100 -100 0)      //1
	(100 200 0)      //2
	(-100 200 0)      //3
	(-100 -100 200)      //4
	(100 -100 200)      //5
	(100 200 200)      //6
	(-100 200 200)      //7
);

blocks
(
	hex (0 1 2 3 4 5 6 7) (40 80 40) simpleGrading (1 1 1)
);

edges
(
	
);

patches
(
	wall sidewall
	(
		(0 4 5 1)
		(3 0 1 2)
		(7 3 2 6)
		(4 7 6 5)
	)

	patch inlet
	(
		(0 3 7 4)
	)

	patch outlet
	(
		(1 5 6 2)
	)
);

mergePatchPairs
(
);


// ************************************************************************* //

