/*--------------------------------*- C++ -*----------------------------------*\
| =========                 |                                                 |
| \\      /  F ield         | foam-extend: Open Source CFD                    |
|  \\    /   O peration     | Version:     4.0                                |
|   \\  /    A nd           | Web:         http://www.foam-extend.org         |
|    \\/     M anipulation  |                                                 |
\*---------------------------------------------------------------------------*/
FoamFile
{
    version     2.0;
    format      ascii;
    class       dictionary;
    location    "system";
    object      controlDict;
}
// * * * * * * * * * * * * * * * * * * * * * * * * * * * * * * * * * * * * * //

OptimisationSwitches
{
    commsType       blocking;
}

application     fsiFoam;

startFrom       latestTime;

startTime       0;

stopAt          endTime;

endTime         5;

deltaT          1e-3;

writeControl    timeStep;

writeInterval   50;

purgeWrite      0;

writeFormat     ascii;

writePrecision  6;

writeCompression compressed;

timeFormat      general;

timePrecision   6;

runTimeModifiable yes;

adjustTimeStep  yes;

maxCo           0.2;

maxDeltaT        5e-3;

functions
(
   pointHistory
   {
       type pointHistory;
       functionObjectLibs
       (
         "libpointHistory.so"
       );

        region solid;
        refHistoryPoint (5.2954e-05 0.000111891 0.000144);
   }

   //hronTurekReport
   //{
   //    type hronTurekReport;
   //    functionObjectLibs
   //    (
   //      "libhronTurekReport.so"
   //    ); (0.043 0.096 0.008)
   //} (0.0419198 0.0969198 0.008)
   // (0.0430953 0.0974047 0.008)
);


// ************************************************************************* //
